data_cdl_v1-4c_Cu_1_Ch_1-1B_4H_Ch
_audit_creation_date              2021-04-19
_audit_creation_method            'tobacco_3.0'
_symmetry_space_group_name_H-M    'P1'
_symmetry_Int_Tables_number       1
_symmetry_cell_setting            triclinic
loop_
_symmetry_equiv_pos_as_xyz
  x,y,z
_cell_length_a                    22.36937476643686
_cell_length_b                    22.36933142023137
_cell_length_c                    44.739144361296304
_cell_angle_alpha                 89.99999868004384
_cell_angle_beta                  89.99999887408455
_cell_angle_gamma                 90.0000000000164
loop_
_atom_site_label
_atom_site_type_symbol
_atom_site_fract_x
_atom_site_fract_y
_atom_site_fract_z
_atom_site_charge
O1         O    0.0497063766    0.0000003527    0.1683675618         -0.7421
O2         O    0.0497049191    0.0000012971    0.0816323809          -0.752
O3         O    0.0497025462    0.0867387729    0.1249962541         -0.6381
O4         O    0.0497087601    0.9132565565    0.1250005267         -0.7223
O5         O    0.9502974643    0.9132549066    0.1250005840         -0.7178
O6         O    0.9502914130    0.0867308005    0.1249994712         -0.6303
O7         O    0.9502936234    0.9999996473    0.0816324382         -0.7554
O8         O    0.9502950809    0.9999987029    0.1683676191         -0.7432
Cu9       Cu    0.0587775209    0.0000017360    0.1249976035          1.0456
Cu10      Cu    0.9412224791    0.9999982640    0.1250023965          1.0433
C11        C    0.9999996336    0.0000004643    0.1811564300          0.9198
C12        C    0.0000003664    0.9999995357    0.0688435700          0.9112
C13        C    1.0000000000    0.1123101564    0.1250000053          0.8327
C14        C    0.0000000000    0.8876898436    0.1249999947          0.8954
O15        O    0.0497069511    0.4999996761    0.0816327495         -0.7421
O16        O    0.0497043508    0.4999987185    0.1683679303          -0.752
O17        O    0.0497025493    0.4132612493    0.1250040538         -0.6381
O18        O    0.0497087632    0.5867434658    0.1249997878         -0.7223
O19        O    0.9502974674    0.5867451156    0.1249994050         -0.7178
O20        O    0.9502914161    0.4132692217    0.1250005113         -0.6303
O21        O    0.9502930551    0.5000003684    0.1683675475         -0.7554
O22        O    0.9502956553    0.5000013259    0.0816323666         -0.7432
Cu23      Cu    0.0587775240    0.4999982862    0.1250027374          1.0456
Cu24      Cu    0.9412224822    0.5000017582    0.1249975596          1.0433
C25        C    0.0000003766    0.4999995665    0.0688437184          0.9198
C26        C    0.9999996296    0.5000004780    0.1811565785          0.9112
C27        C    0.0000000031    0.3876898658    0.1250001388          0.8327
C28        C    0.0000000031    0.6123101786    0.1250001581          0.8954
O29        O    0.5497070639    0.9999971537    0.1683664558         -0.7421
O30        O    0.5497047920    0.9999982643    0.0816312750          -0.752
O31        O    0.5497028263    0.0867356570    0.1249951897         -0.6381
O32        O    0.5497090401    0.9132534405    0.1249993792         -0.7223
O33        O    0.4502977444    0.9132517907    0.1249996699         -0.7178
O34        O    0.4502916931    0.0867276846    0.1249986402         -0.6303
O35        O    0.4502934962    0.9999966144    0.0816315657         -0.7554
O36        O    0.4502957682    0.9999955038    0.1683667465         -0.7432
Cu37      Cu    0.5587778009    0.9999986200    0.1249964763          1.0456
Cu38      Cu    0.4412227592    0.9999951481    0.1250015452          1.0433
C39        C    0.5000004410    0.9999972407    0.1811554408          0.9198
C40        C    0.5000001192    0.9999965274    0.0688425807          0.9112
C41        C    0.5000002801    0.1123070405    0.1249990699          0.8327
C42        C    0.5000002801    0.8876867276    0.1249989516          0.8954
O43        O    0.5497067917    0.4999966699    0.0816321819         -0.7421
O44        O    0.5497050023    0.4999955112    0.1683673628          -0.752
O45        O    0.5497027953    0.4132581426    0.1250034360         -0.6381
O46        O    0.5497090091    0.5867403590    0.1249992706         -0.7223
O47        O    0.4502977134    0.5867420089    0.1249991201         -0.7178
O48        O    0.4502916621    0.4132661150    0.1250001258         -0.6303
O49        O    0.4502937065    0.4999971611    0.1683672123         -0.7554
O50        O    0.4502954959    0.4999983198    0.0816320315         -0.7432
Cu51      Cu    0.5587777700    0.4999951795    0.1250021487          1.0456
Cu52      Cu    0.4412227282    0.4999986515    0.1249972456          1.0433
C53        C    0.5000000975    0.4999965900    0.0688432671          0.9198
C54        C    0.5000004006    0.4999972410    0.1811561272          0.9112
C55        C    0.5000002491    0.3876867591    0.1249996224          0.8327
C56        C    0.5000002491    0.6123070719    0.1249997719          0.8954
O57        O    0.0497117372    0.9999984054    0.9183673936         -0.7421
O58        O    0.0497102882    0.9999993301    0.8316322128          -0.752
O59        O    0.0497079111    0.0867368158    0.8749960810         -0.6381
O60        O    0.0497141249    0.9132545993    0.8750003635         -0.7223
O61        O    0.9503028291    0.9132529495    0.8750004183         -0.7178
O62        O    0.9502967779    0.0867288433    0.8749992956         -0.6303
O63        O    0.9502989925    0.9999976803    0.8316322676         -0.7554
O64        O    0.9503004414    0.9999967556    0.9183674485         -0.7432
Cu65      Cu    0.0587828857    0.9999997788    0.8749974356          1.0456
Cu66      Cu    0.9412278439    0.9999963069    0.8750022256          1.0433
C67        C    0.0000049929    0.9999985199    0.9311562607          0.9198
C68        C    0.0000057368    0.9999975658    0.8188434006          0.9112
C69        C    0.0000053648    0.1123081993    0.8749998296          0.8327
C70        C    0.0000053648    0.8876878864    0.8749998316          0.8954
O71        O    0.0497117518    0.4999984153    0.9183669449         -0.7421
O72        O    0.0497103088    0.4999993858    0.8316317640          -0.752
O73        O    0.0497079287    0.5867368486    0.8749956438         -0.6381
O74        O    0.0497141425    0.4132546321    0.8749999033         -0.7223
O75        O    0.9503028467    0.4132529822    0.8749999565         -0.7178
O76        O    0.9502967955    0.5867288761    0.8749988567         -0.6303
O77        O    0.9502990131    0.4999977359    0.8316318172         -0.7554
O78        O    0.9503004561    0.4999967654    0.9183669981         -0.7432
Cu79      Cu    0.0587829033    0.4999998116    0.8749969870          1.0456
Cu80      Cu    0.9412278615    0.4999963396    0.8750017751          1.0433
C81        C    0.0000050066    0.4999985230    0.9311558111          0.9198
C82        C    0.0000057582    0.4999976282    0.8188429510          0.9112
C83        C    0.0000053824    0.6123082320    0.8749993948          0.8327
C84        C    0.0000053824    0.3876879192    0.8749993672          0.8954
O85        O    0.4502940244    0.9999966713    0.9183669677         -0.7421
O86        O    0.4502965461    0.9999955960    0.8316317869          -0.752
O87        O    0.4502983869    0.9132581856    0.8749956948         -0.6381
O88        O    0.4502921730    0.0867404021    0.8749998980         -0.7223
O89        O    0.5497034688    0.0867420520    0.8750002583         -0.7178
O90        O    0.5497095201    0.9132661581    0.8749992149         -0.6303
O91        O    0.5497078419    0.9999972459    0.8316321472         -0.7554
O92        O    0.5497053201    0.9999983211    0.9183673280         -0.7432
Cu93      Cu    0.4412234122    0.9999952226    0.8749969819          1.0456
Cu94      Cu    0.5587784540    0.9999986946    0.8750021331          1.0433
C95        C    0.5000006105    0.9999965790    0.9311559875          0.9198
C96        C    0.5000012557    0.9999973381    0.8188431274          0.9112
C97        C    0.5000009331    0.8876868022    0.8749996078          0.8327
C98        C    0.5000009331    0.1123071150    0.8749995072          0.8954
O99        O    0.4502945023    0.4999972161    0.8316315649         -0.7421
O100       O    0.4502960286    0.4999983222    0.9183667458          -0.752
O101       O    0.4502983671    0.5867357172    0.8750028302         -0.6381
O102       O    0.4502921532    0.4132535007    0.8749986424         -0.7223
O103       O    0.5497034490    0.4132518508    0.8749985654         -0.7178
O104       O    0.5497095003    0.5867277447    0.8749995934         -0.6303
O105       O    0.5497073243    0.4999966723    0.9183666687         -0.7554
O106       O    0.5497057980    0.4999955663    0.8316314879         -0.7432
Cu107     Cu    0.4412233924    0.4999986802    0.8750015250          1.0456
Cu108     Cu    0.5587784342    0.4999952082    0.8749967087          1.0433
C109       C    0.5000012352    0.4999973039    0.8188426868          0.9198
C110       C    0.5000005914    0.4999965846    0.9311555469          0.9112
C111       C    0.5000009133    0.6123071006    0.8749990566          0.8327
C112       C    0.5000009133    0.3876867878    0.8749991771          0.8954
O113       O    0.0000017809    0.9502956958    0.3316323602         -0.7421
O114       O    0.0000007738    0.9502969793    0.4183675411          -0.752
O115       O    0.9132634974    0.9502994392    0.3750036520         -0.6381
O116       O    0.0867453777    0.9502932254    0.3749994111         -0.7223
O117       O    0.0867470276    0.0497047138    0.3749994035         -0.7178
O118       O    0.9132714698    0.0497107651    0.3750004847         -0.6303
O119       O    0.0000024236    0.0497084677    0.4183675334         -0.7554
O120       O    0.0000034308    0.0497071842    0.3316323526         -0.7432
Cu121     Cu    0.0000003663    0.9412244470    0.3750023139          1.0456
Cu122     Cu    0.0000038383    0.0587797166    0.3749975797          1.0433
C123       C    0.0000016786    0.0000025609    0.3188435168          0.9198
C124       C    0.0000025260    0.0000016027    0.4311563769          0.9112
C125       C    0.8876921635    0.0000020818    0.3749999210          0.8327
C126       C    0.1123120411    0.0000020818    0.3749999727          0.8954
O127       O    0.0000017344    0.4502955306    0.3316315646         -0.7421
O128       O    0.0000007302    0.4502969057    0.4183667455          -0.752
O129       O    0.9132634524    0.4502993198    0.3750028572         -0.6381
O130       O    0.0867453327    0.4502931059    0.3749986148         -0.7223
O131       O    0.0867469826    0.5497045943    0.3749985809         -0.7178
O132       O    0.9132714248    0.5497106456    0.3749996636         -0.6303
O133       O    0.0000023801    0.5497083941    0.4183667116         -0.7554
O134       O    0.0000033843    0.5497070190    0.3316315308         -0.7432
Cu135     Cu    0.0000003213    0.4412243275    0.3750015207          1.0456
Cu136     Cu    0.0000037932    0.5587795971    0.3749967555          1.0433
C137       C    0.0000016317    0.5000023821    0.3188427081          0.9198
C138       C    0.0000024828    0.5000015425    0.4311555682          0.9112
C139       C    0.8876921185    0.5000019623    0.3749991132          0.8327
C140       C    0.1123119960    0.5000019623    0.3749991630          0.8954
O141       O    0.5000020635    0.9502921092    0.3316323815         -0.7421
O142       O    0.5000010182    0.9502945635    0.4183675624          -0.752
O143       O    0.4132637609    0.9502964380    0.3750036638         -0.6381
O144       O    0.5867456412    0.9502902241    0.3749994419         -0.7223
O145       O    0.5867472911    0.0497017125    0.3749990988         -0.7178
O146       O    0.4132717333    0.0497077638    0.3750001610         -0.6303
O147       O    0.5000026681    0.0497060519    0.4183672193         -0.7554
O148       O    0.5000037133    0.0497035976    0.3316320384         -0.7432
Cu149     Cu    0.5000006298    0.9412214458    0.3750023658          1.0456
Cu150     Cu    0.5000041018    0.0587767153    0.3749972350          1.0433
C151       C    0.5000019668    0.9999988016    0.3188433704          0.9198
C152       C    0.5000027648    0.9999993595    0.4311562304          0.9112
C153       C    0.3876924270    0.9999990805    0.3749997622          0.8327
C154       C    0.6123123046    0.9999990805    0.3749998386          0.8954
O155       O    0.5000019605    0.4502915713    0.3316315729         -0.7421
O156       O    0.5000009146    0.4502939640    0.4183667538          -0.752
O157       O    0.4132636576    0.4502958693    0.3750028551         -0.6381
O158       O    0.5867455379    0.4502896554    0.3749986335         -0.7223
O159       O    0.5867471878    0.5497011438    0.3749983080         -0.7178
O160       O    0.4132716301    0.5497071951    0.3749993699         -0.6303
O161       O    0.5000025645    0.5497054524    0.4183664283         -0.7554
O162       O    0.5000036103    0.5497030597    0.3316312475         -0.7432
Cu163     Cu    0.5000005265    0.4412208770    0.3750015556          1.0456
Cu164     Cu    0.5000039985    0.5587761466    0.3749964456          1.0433
C165       C    0.5000018639    0.4999982727    0.3188425706          0.9198
C166       C    0.5000026611    0.4999987509    0.4311554307          0.9112
C167       C    0.3876923237    0.4999985118    0.3749989623          0.8327
C168       C    0.6123122013    0.4999985118    0.3749990390          0.8954
O169       O    0.0000036310    0.9502886282    0.6683674666         -0.7421
O170       O    0.0000046424    0.9502913523    0.5816322858          -0.752
O171       O    0.0867419166    0.9502930919    0.6249961759         -0.6381
O172       O    0.9132600363    0.9502868780    0.6250004147         -0.7223
O173       O    0.9132583865    0.0496983664    0.6250008328         -0.7178
O174       O    0.0867339442    0.0497044177    0.6249997538         -0.6303
O175       O    0.0000029925    0.0497028407    0.5816327039         -0.7554
O176       O    0.0000019811    0.0497001166    0.6683678847         -0.7432
Cu177     Cu    0.0000050478    0.9412180997    0.6249974755          1.0456
Cu178     Cu    0.0000015758    0.0587733692    0.6250026951          1.0433
C179       C    0.0000037327    0.9999952808    0.6811565153          0.9198
C180       C    0.0000028909    0.9999961881    0.5688436552          0.9112
C181       C    0.1123132506    0.9999957344    0.6250001125          0.8327
C182       C    0.8876933730    0.9999957344    0.6250000580          0.8954
O183       O    0.0000030272    0.4502898656    0.5816306477         -0.7421
O184       O    0.0000020213    0.4502912148    0.6683658285          -0.752
O185       O    0.9132647443    0.4502936418    0.6250019398         -0.6381
O186       O    0.0867466246    0.4502874280    0.6249976983         -0.7223
O187       O    0.0867482745    0.5496989164    0.6249976718         -0.7178
O188       O    0.9132727167    0.5497049677    0.6249987536         -0.6303
O189       O    0.0000036711    0.5497027032    0.6683658021         -0.7554
O190       O    0.0000046771    0.5497013540    0.5816306212         -0.7432
Cu191     Cu    0.0000016132    0.4412186496    0.6250006031          1.0456
Cu192     Cu    0.0000050852    0.5587739192    0.6249958466          1.0433
C193       C    0.0000029248    0.4999967209    0.5688417948          0.9198
C194       C    0.0000037736    0.4999958479    0.6811546549          0.9112
C195       C    0.8876934104    0.4999962844    0.6249981994          0.8327
C196       C    0.1123132880    0.4999962844    0.6249982503          0.8954
O197       O    0.5000029109    0.0497059396    0.6683680348         -0.7421
O198       O    0.5000017442    0.0497042842    0.5816328539          -0.752
O199       O    0.4132645476    0.0497020102    0.6249967845         -0.6381
O200       O    0.5867464279    0.0497082241    0.6250009423         -0.7223
O201       O    0.5867480778    0.9502967357    0.6250010565         -0.7178
O202       O    0.4132725200    0.9502906844    0.6250000585         -0.6303
O203       O    0.5000033940    0.9502927958    0.5816329681         -0.7554
O204       O    0.5000045608    0.9502944512    0.6683681489         -0.7432
Cu205     Cu    0.5000014165    0.0587770025    0.6249980713          1.0456
Cu206     Cu    0.5000048884    0.9412217329    0.6250029315          1.0433
C207       C    0.5000028321    0.9999991294    0.6811569315          0.9198
C208       C    0.5000034728    0.9999996060    0.5688440714          0.9112
C209       C    0.3876932137    0.9999993677    0.6250005812          0.8327
C210       C    0.6123130912    0.9999993677    0.6250004217          0.8954
O211       O    0.5000028769    0.5497056641    0.6683656111         -0.7421
O212       O    0.5000017030    0.5497039126    0.5816304303          -0.752
O213       O    0.4132645100    0.5497016867    0.6249943627         -0.6381
O214       O    0.5867463903    0.5497079006    0.6249985168         -0.7223
O215       O    0.5867480402    0.4502964122    0.6249986585         -0.7178
O216       O    0.4132724824    0.4502903609    0.6249976642         -0.6303
O217       O    0.5000033528    0.4502924242    0.5816305720         -0.7554
O218       O    0.5000045268    0.4502941758    0.6683657528         -0.7432
Cu219     Cu    0.5000013789    0.5587766790    0.6249956452          1.0456
Cu220     Cu    0.5000048509    0.4412214094    0.6250005379          1.0433
C221       C    0.5000027992    0.4999988681    0.6811545216          0.9198
C222       C    0.5000034305    0.4999992203    0.5688416615          0.9112
C223       C    0.3876931761    0.4999990442    0.6249981736          0.8327
C224       C    0.6123130537    0.4999990442    0.6249980095          0.8954
C535       C    0.7844254929    0.5589127568    0.6204252173         -0.1462
C536       C    0.8188481639    0.4999969743    0.6249981519          0.0753
C537       C    0.7844259030    0.4410818818    0.6295710391         -0.1462
C538       C    0.7155809712    0.4410825718    0.6295709916         -0.1462
C539       C    0.6811583002    0.4999983542    0.6249980570          0.0753
C540       C    0.7155805610    0.5589134468    0.6204251698         -0.1462
H541       H    0.8099069068    0.6025252279    0.6170400930          0.1152
H542       H    0.8099043524    0.3974707645    0.6329560538          0.1152
H543       H    0.6900995573    0.3974701007    0.6329561159          0.1152
H544       H    0.6901021117    0.6025245641    0.6170401551          0.1152
C525       C    0.2155809791    0.5589036924    0.6203962107         -0.1462
C526       C    0.1811583002    0.4999969743    0.6249982312          0.0753
C527       C    0.2155805531    0.4410909462    0.6296002324         -0.1462
C528       C    0.2844254849    0.4410916361    0.6296002132         -0.1462
C529       C    0.3188481639    0.4999983542    0.6249981928          0.0753
C530       C    0.2844259109    0.5589043824    0.6203961915         -0.1462
H531       H    0.1900995711    0.6025094535    0.6169895345          0.1152
H532       H    0.1901020979    0.3974865386    0.6330067772          0.1152
H533       H    0.3099068930    0.3974858750    0.6330068895          0.1152
H534       H    0.3099043662    0.6025087900    0.6169896467          0.1152
C515       C    0.7844250460    0.9999970955    0.6548104279         -0.1462
C516       C    0.8188481639    0.9999966428    0.6250001490          0.0753
C517       C    0.7844263500    0.9999970983    0.5951899609         -0.1462
C518       C    0.7155814182    0.9999980066    0.5951900518         -0.1462
C519       C    0.6811583003    0.9999984594    0.6250003308          0.0753
C520       C    0.7155801142    0.9999980038    0.6548105189         -0.1462
H521       H    0.8099061291    0.9999967583    0.6768777100          0.1152
H522       H    0.8099051302    0.9999967631    0.5731235549          0.1152
H523       H    0.6901003351    0.9999983438    0.5731227697          0.1152
H524       H    0.6901013340    0.9999983390    0.6768769248          0.1152
C505       C    0.2155822821    0.9571055852    0.6042942636         -0.1462
C506       C    0.1811583003    0.9999966427    0.6250002297          0.0753
C507       C    0.2155792502    0.0428886087    0.6457063129         -0.1462
C508       C    0.2844241821    0.0428895170    0.6457064301         -0.1462
C509       C    0.3188481639    0.9999984594    0.6250004640          0.0753
C510       C    0.2844272140    0.9571064935    0.6042943808         -0.1462
H511       H    0.1901018387    0.9253543896    0.5889663838          0.1152
H512       H    0.1900998305    0.0746377745    0.6610334507          0.1152
H513       H    0.3099046256    0.0746407125    0.6610343099          0.1152
H514       H    0.3099066337    0.9253573277    0.5889672430          0.1152
C495       C    0.5523558322    0.5285268373    0.4827877709         -0.1462
C496       C    0.5000028535    0.4999988682    0.4655763840          0.0753
C497       C    0.4476500671    0.4714710165    0.4827871592         -0.1462
C498       C    0.4476502594    0.4714711338    0.5172093213         -0.1462
C499       C    0.5000032382    0.4999991029    0.5344207082          0.0753
C500       C    0.5523560246    0.5285269546    0.5172099330         -0.1462
H501       H    0.5911104923    0.5496448574    0.4700473269          0.1152
H502       H    0.4088969214    0.4503538124    0.4700478964          0.1152
H503       H    0.4088955994    0.4503531137    0.5299497653          0.1152
H504       H    0.5911091702    0.5496441588    0.5299491958          0.1152
C485       C    0.5000029817    0.0596205607    0.4827894466         -0.1462
C486       C    0.5000029418    0.9999994211    0.4655779888          0.0753
C487       C    0.5000030789    0.9403783432    0.4827886931         -0.1462
C488       C    0.5000032559    0.9403784048    0.5172108552         -0.1462
C489       C    0.5000032958    0.9999995444    0.5344223131          0.0753
C490       C    0.5000031587    0.0596206223    0.5172116087         -0.1462
H491       H    0.5000028802    0.1037556443    0.4700490551          0.1152
H492       H    0.5000030494    0.8962451007    0.4700493778          0.1152
H493       H    0.5000033574    0.8962433212    0.5299512467          0.1152
H494       H    0.5000031882    0.1037538648    0.5299509240          0.1152
C475       C    0.0055173658    0.4406342193    0.4827874811         -0.1462
C476       C    0.0000025933    0.5000003371    0.4655765194          0.0753
C477       C    0.9944879313    0.5593652495    0.4827877198         -0.1462
C478       C    0.9944880418    0.5593640441    0.5172098819         -0.1462
C479       C    0.0000028143    0.4999979263    0.5344208436          0.0753
C480       C    0.0055174763    0.4406330139    0.5172096432         -0.1462
H481       H    0.0095996481    0.3966887647    0.4700467223          0.1152
H482       H    0.9904057418    0.6033097177    0.4700487718          0.1152
H483       H    0.9904057595    0.6033094988    0.5299506407          0.1152
H484       H    0.0095996658    0.3966885457    0.5299485912          0.1152
C465       C    0.7844230698    0.5595926865    0.3759302007         -0.1462
C466       C    0.8188470917    0.5000010997    0.3749990947          0.0753
C467       C    0.7844261818    0.4404086503    0.3740679701         -0.1462
C468       C    0.7155812500    0.4404077876    0.3740679516         -0.1462
C469       C    0.6811572280    0.4999993744    0.3749990576          0.0753
C470       C    0.7155781379    0.5595918239    0.3759301821         -0.1462
H471       H    0.8099034836    0.6037065777    0.3766194747          0.1152
H472       H    0.8099056312    0.3962972836    0.3733787393          0.1152
H473       H    0.6901008362    0.3962938965    0.3733786776          0.1152
H474       H    0.6900986886    0.6037031906    0.3766194129          0.1152
C455       C    0.2155806800    0.5073957554    0.4045791230         -0.1462
C456       C    0.1811572280    0.5000010997    0.3749991128          0.0753
C457       C    0.2155787079    0.4926055814    0.3454190525         -0.1462
C458       C    0.2844236397    0.4926047187    0.3454190023         -0.1462
C459       C    0.3188470917    0.4999993744    0.3749990124          0.0753
C460       C    0.2844256118    0.5073948928    0.4045790728         -0.1462
H461       H    0.1900998443    0.5128703599    0.4264760507          0.1152
H462       H    0.1900996804    0.4871318494    0.3235230980          0.1152
H463       H    0.3099044755    0.4871301143    0.3235220745          0.1152
H464       H    0.3099046393    0.5128686247    0.4264750273          0.1152
C445       C    0.0584069782    0.9880162781    0.4827891822         -0.1462
C446       C    0.0000026172    0.0000002491    0.4655778539          0.0753
C447       C    0.9415983474    0.0119828663    0.4827886878         -0.1462
C448       C    0.9415984387    0.0119815126    0.5172108499         -0.1462
C449       C    0.0000027996    0.9999975417    0.5344221782          0.0753
C450       C    0.0584070694    0.9880149245    0.5172113443         -0.1462
H451       H    0.1016413077    0.9791460290    0.4700486948          0.1152
H452       H    0.8983657987    0.0208537382    0.4700494684          0.1152
H453       H    0.8983641091    0.0208517617    0.5299513373          0.1152
H454       H    0.1016396181    0.9791440526    0.5299505636          0.1152
C435       C    0.7844239181    0.9942111990    0.4046692326         -0.1462
C436       C    0.8188471659    0.0000013315    0.3749999004          0.0753
C437       C    0.7844254818    0.0057907137    0.3453305476         -0.1462
C438       C    0.7155805500    0.0057899633    0.3453305270         -0.1462
C439       C    0.6811573022    0.9999998308    0.3749998592          0.0753
C440       C    0.7155789863    0.9942104486    0.4046692120         -0.1462
H441       H    0.8099049050    0.9899255524    0.4266322600          0.1152
H442       H    0.8099043581    0.0100767324    0.3233684744          0.1152
H443       H    0.6900995631    0.0100756099    0.3233674996          0.1152
H444       H    0.6901001100    0.9899244299    0.4266312852          0.1152
C425       C    0.2155804864    0.0000009577    0.3451896602         -0.1462
C426       C    0.1811573022    0.0000013315    0.3749999201          0.0753
C427       C    0.2155790498    0.0000009549    0.4048101273         -0.1462
C428       C    0.2844239816    0.0000002046    0.4048100747         -0.1462
C429       C    0.3188471659    0.9999998308    0.3749998148          0.0753
C430       C    0.2844254183    0.0000002074    0.3451896076         -0.1462
H431       H    0.1900994525    0.0000012364    0.3231223640          0.1152
H432       H    0.1901002205    0.0000012316    0.4268765191          0.1152
H433       H    0.3099050156    0.9999999259    0.4268773709          0.1152
H434       H    0.3099042476    0.9999999307    0.3231232158          0.1152
C415       C    0.4588727543    0.5431611835    0.7672092868         -0.1462
C416       C    0.5000016262    0.4999976949    0.7844207663          0.0753
C417       C    0.5411308891    0.4568345974    0.7672100837         -0.1462
C418       C    0.5411312801    0.4568349884    0.7327879216         -0.1462
C419       C    0.5000024082    0.4999984771    0.7155764421          0.0753
C420       C    0.4588731453    0.5431615746    0.7327871247         -0.1462
H421       H    0.4284264169    0.5751130869    0.7799496623          0.1152
H422       H    0.5715756355    0.4248837705    0.7799494150          0.1152
H423       H    0.5715776175    0.4248830851    0.7200475461          0.1152
H424       H    0.4284283989    0.5751124015    0.7200477934          0.1152
C405       C    0.5117602557    0.0584481244    0.7672109293         -0.1462
C406       C    0.5000016498    0.9999977859    0.7844221916          0.0753
C407       C    0.4882434381    0.9415478953    0.7672112917         -0.1462
C408       C    0.4882438322    0.9415483431    0.7327891296         -0.1462
C409       C    0.5000024380    0.9999986816    0.7155778673          0.0753
C410       C    0.5117606498    0.0584485723    0.7327887672         -0.1462
H411       H    0.5204643864    0.1017162253    0.7799514656          0.1152
H412       H    0.4795393877    0.8982813127    0.7799504622          0.1152
H413       H    0.4795397014    0.8982802422    0.7200485933          0.1152
H414       H    0.5204647001    0.1017151549    0.7200495967          0.1152
C395       C    0.5596219189    0.7844186714    0.8749994054         -0.1462
C396       C    0.5000009282    0.8188420166    0.8749994700          0.0753
C397       C    0.4403799325    0.7844202966    0.8749993968         -0.1462
C398       C    0.4403799275    0.7155752314    0.8749992590         -0.1462
C399       C    0.5000009183    0.6811518862    0.8749991944          0.0753
C400       C    0.5596219140    0.7155736062    0.8749992676         -0.1462
H401       H    0.6037569417    0.8098996850    0.8749994596          0.1152
H402       H    0.3962468002    0.8098992450    0.8749994446          0.1152
H403       H    0.3962449047    0.6900942178    0.8749992048          0.1152
H404       H    0.6037550462    0.6900946578    0.8749992198          0.1152
C385       C    0.5596218263    0.2155752316    0.8750519315         -0.1462
C386       C    0.5000009282    0.1811518862    0.8749994247          0.0753
C387       C    0.4403800251    0.2155736059    0.8749468352         -0.1462
C388       C    0.4403800201    0.2844186712    0.8749467527         -0.1462
C389       C    0.5000009183    0.3188420166    0.8749992596          0.0753
C390       C    0.5596218213    0.2844202968    0.8750518490         -0.1462
H391       H    0.6037567805    0.1900942183    0.8750908614          0.1152
H392       H    0.3962469614    0.1900946573    0.8749079682          0.1152
H393       H    0.3962450659    0.3098996845    0.8749078229          0.1152
H394       H    0.6037548850    0.3098992455    0.8750907161          0.1152
C375       C    0.9822065497    0.5568994214    0.7672093596         -0.1462
C376       C    0.0000052621    0.4999971831    0.7844209651          0.0753
C377       C    0.0178034783    0.4430944997    0.7672104084         -0.1462
C378       C    0.0178029821    0.4430940546    0.7327882463         -0.1462
C379       C    0.0000042698    0.4999962929    0.7155766408          0.0753
C380       C    0.9822060536    0.5568989763    0.7327871975         -0.1462
H381       H    0.9690312468    0.5990221870    0.7799496418          0.1152
H382       H    0.0309785852    0.4009738644    0.7799498330          0.1152
H383       H    0.0309782850    0.4009712890    0.7200479641          0.1152
H384       H    0.9690309467    0.5990196117    0.7200477729          0.1152
C365       C    0.9647661225    0.9519041487    0.7672109635         -0.1462
C366       C    0.0000052358    0.9999969946    0.7844221201          0.0753
C367       C    0.0352438480    0.0480892691    0.7672111145         -0.1462
C368       C    0.0352433470    0.0480886979    0.7327889524         -0.1462
C369       C    0.0000042337    0.9999958520    0.7155777958          0.0753
C370       C    0.9647656214    0.9519035775    0.7327888014         -0.1462
H371       H    0.9386803965    0.9163033741    0.7799515780          0.1152
H372       H    0.0613288296    0.0836889447    0.7799502067          0.1152
H373       H    0.0613290730    0.0836894726    0.7200483378          0.1152
H374       H    0.9386806398    0.9163039019    0.7200497092          0.1152
C355       C    0.9403964865    0.7844197836    0.8743989084         -0.1462
C356       C    0.0000053692    0.8188431245    0.8749997224          0.0753
C357       C    0.0596142563    0.7844214001    0.8756004273         -0.1462
C358       C    0.0596142607    0.7155763349    0.8756003181         -0.1462
C359       C    0.0000053780    0.6811529940    0.8749995040          0.0753
C360       C    0.9403964909    0.7155747183    0.8743987992         -0.1462
H361       H    0.8962704273    0.8099008003    0.8739542308          0.1152
H362       H    0.1037384259    0.8099003453    0.8760451667          0.1152
H363       H    0.1037403200    0.6900953181    0.8760449957          0.1152
H364       H    0.8962723214    0.6900957731    0.8739540598          0.1152
C345       C    0.9429290789    0.2155763960    0.8836158395         -0.1462
C346       C    0.0000053692    0.1811529940    0.8749997140          0.0753
C347       C    0.0570816640    0.2155746572    0.8663834729         -0.1462
C348       C    0.0570816684    0.2844197224    0.8663833573         -0.1462
C349       C    0.0000053780    0.3188431245    0.8749994828          0.0753
C350       C    0.9429290833    0.2844214613    0.8836157239         -0.1462
H351       H    0.9006777957    0.1900954245    0.8899940959          0.1152
H352       H    0.0993311376    0.1900956667    0.8600055748          0.1152
H353       H    0.0993329515    0.3099006939    0.8600051010          0.1152
H354       H    0.9006796097    0.3099004517    0.8899936220          0.1152
C335       C    0.5005058666    0.5596165986    0.2327885582         -0.1462
C336       C    0.5000007664    0.4999974990    0.2155771867          0.0753
C337       C    0.4994960321    0.4403786572    0.2327879774         -0.1462
C338       C    0.4994963979    0.4403789152    0.2672101395         -0.1462
C339       C    0.5000014981    0.4999980148    0.2844215110          0.0753
C340       C    0.5005062324    0.5596168565    0.2672107204         -0.1462
H341       H    0.5008795011    0.6037500269    0.2200481028          0.1152
H342       H    0.4991221428    0.3962469248    0.2200487260          0.1152
H343       H    0.4991227634    0.3962454869    0.2799505949          0.1152
H344       H    0.5008801217    0.6037485890    0.2799499717          0.1152
C325       C    0.5001367350    0.4403756354    0.0172100853         -0.1462
C326       C    0.5000002210    0.4999965886    0.0344215691          0.0753
C327       C    0.4998638305    0.5596175406    0.0172108908         -0.1462
C328       C    0.4998639540    0.5596175392    0.9827887287         -0.1462
C329       C    0.5000004680    0.4999965859    0.9655772448          0.0753
C330       C    0.5001368585    0.4403756340    0.9827879232         -0.1462
H331       H    0.5002376994    0.3962406450    0.0299504576          0.1152
H332       H    0.4997627790    0.6037506451    0.0299502253          0.1152
H333       H    0.4997629896    0.6037525296    0.9700483564          0.1152
H334       H    0.5002379100    0.3962425295    0.9700485887          0.1152
C315       C    0.5564923453    0.0190607122    0.2327885173         -0.1462
C316       C    0.5000008224    0.9999976309    0.2155772434          0.0753
C317       C    0.4435096810    0.9809349398    0.2327881317         -0.1462
C318       C    0.4435100624    0.9809353301    0.2672102938         -0.1462
C319       C    0.5000015853    0.9999984114    0.2844215677          0.0753
C320       C    0.5564927268    0.0190611024    0.2672106795         -0.1462
H321       H    0.5983104630    0.0331720550    0.2200479897          0.1152
H322       H    0.4016930687    0.9668239115    0.2200489526          0.1152
H323       H    0.4016919447    0.9668239873    0.2799508214          0.1152
H324       H    0.5983093391    0.0331721308    0.2799498586          0.1152
C305       C    0.4995126763    0.9403774321    0.0172099557         -0.1462
C306       C    0.5000002420    0.9999965403    0.0344214462          0.0753
C307       C    0.5004879305    0.0596156614    0.0172107746         -0.1462
C308       C    0.5004880534    0.0596156743    0.9827886125         -0.1462
C309       C    0.5000004877    0.9999965661    0.9655771220          0.0753
C310       C    0.4995127991    0.9403774450    0.9827877936         -0.1462
H311       H    0.4991516601    0.8962437971    0.0299503230          0.1152
H312       H    0.5008488404    0.1037474001    0.0299501141          0.1152
H313       H    0.5008490696    0.1037493093    0.9700482452          0.1152
H314       H    0.4991518893    0.8962457063    0.9700484541          0.1152
C295       C    0.5000004588    0.7844189779    0.1548094927         -0.1462
C296       C    0.5000002723    0.8188419650    0.1249991566          0.0753
C297       C    0.5000000781    0.7844198869    0.0951890257         -0.1462
C298       C    0.5000000704    0.7155748216    0.0951892307         -0.1462
C299       C    0.5000002568    0.6811518345    0.1249995668          0.0753
C300       C    0.5000004510    0.7155739127    0.1548096978         -0.1462
H301       H    0.5000006025    0.8099002566    0.1768767325          0.1152
H302       H    0.4999999401    0.8098985702    0.0731225774          0.1152
H303       H    0.4999999266    0.6900935430    0.0731219909          0.1152
H304       H    0.5000005891    0.6900952294    0.1768761460          0.1152
C285       C    0.4465500927    0.2155752760    0.1117919952         -0.1462
C286       C    0.5000002723    0.1811518345    0.1249992080          0.0753
C287       C    0.5534504442    0.2155734583    0.1382065589         -0.1462
C288       C    0.5534504364    0.2844185235    0.1382066971         -0.1462
C289       C    0.5000002568    0.3188419650    0.1249994843          0.0753
C290       C    0.4465500850    0.2844203413    0.1117921334         -0.1462
H291       H    0.4069830824    0.1900943338    0.1020151251          0.1152
H292       H    0.5930157687    0.1900944386    0.1479829089          0.1152
H293       H    0.5930174468    0.3098994658    0.1479835672          0.1152
H294       H    0.4069847604    0.3098993610    0.1020157834          0.1152
C275       C    0.9411921117    0.4901939227    0.2672105686         -0.1462
C276       C    0.0000011312    0.5000019061    0.2844218054          0.0753
C277       C    0.0588096501    0.5098094135    0.2672108801         -0.1462
C278       C    0.0588091496    0.5098089375    0.2327887180         -0.1462
C279       C    0.0000001301    0.5000009540    0.2155774812          0.0753
C280       C    0.9411916112    0.4901934466    0.2327884065         -0.1462
H281       H    0.8976585327    0.4829338198    0.2799511237          0.1152
H282       H    0.1023417384    0.5170695584    0.2799500318          0.1152
H283       H    0.1023427286    0.5170690403    0.2200481629          0.1152
H284       H    0.8976595229    0.4829333018    0.2200492548          0.1152
C265       C    0.9994400492    0.5596173627    0.9827889695         -0.1462
C266       C    0.0000038491    0.4999987839    0.9655776026          0.0753
C267       C    0.0005664915    0.4403804659    0.9827883979         -0.1462
C268       C    0.0005653340    0.4403807268    0.0172105600         -0.1462
C269       C    0.0000015341    0.4999993056    0.0344219269          0.0753
C270       C    0.9994388917    0.5596176236    0.0172111316         -0.1462
H271       H    0.9990235477    0.6037504033    0.9700485106          0.1152
H272       H    0.0009838320    0.3962491190    0.9700491500          0.1152
H273       H    0.0009818355    0.3962476862    0.0299510189          0.1152
H274       H    0.9990215512    0.6037489705    0.0299503795          0.1152
C255       C    0.9623332866    0.9537858890    0.2327896132         -0.1462
C256       C    0.0000001448    0.0000009884    0.2155778113          0.0753
C257       C    0.0376675143    0.0462166121    0.2327881715         -0.1462
C258       C    0.0376680256    0.0462171362    0.2672103336         -0.1462
C259       C    0.0000011674    0.0000020367    0.2844221355          0.0753
C260       C    0.9623337979    0.9537864131    0.2672117753         -0.1462
H261       H    0.9344496495    0.9195743234    0.2200494764          0.1152
H262       H    0.0655495810    0.0804263270    0.2200486016          0.1152
H263       H    0.0655516627    0.0804287017    0.2799504704          0.1152
H264       H    0.9344517312    0.9195766981    0.2799513452          0.1152
C245       C    0.0003676224    0.9403791665    0.0172107059         -0.1462
C246       C    0.0000015230    0.9999992817    0.0344220774          0.0753
C247       C    0.9996365803    0.0596191430    0.0172112868         -0.1462
C248       C    0.9996377369    0.0596188891    0.9827891247         -0.1462
C249       C    0.0000038363    0.9999987738    0.9655777532          0.0753
C250       C    0.0003687790    0.9403789125    0.9827885438         -0.1462
H251       H    0.0006377748    0.8962449834    0.0299511614          0.1152
H252       H    0.9993655832    0.1037516273    0.0299505381          0.1152
H253       H    0.9993675844    0.1037530721    0.9700486693          0.1152
H254       H    0.0006397760    0.8962464283    0.9700492925          0.1152
C235       C    0.0000000354    0.7844218048    0.1548102895         -0.1462
C236       C    0.0000000008    0.8188450764    0.1250000355          0.0753
C237       C    0.9999999669    0.7844232826    0.0951898224         -0.1462
C238       C    0.9999999677    0.7155782174    0.0951898633         -0.1462
C239       C    0.0000000023    0.6811549459    0.1250001172          0.0753
C240       C    0.0000000362    0.7155767396    0.1548103303         -0.1462
H241       H    0.0000000605    0.8099028729    0.1768775901          0.1152
H242       H    0.9999999413    0.8099021765    0.0731234350          0.1152
H243       H    0.9999999426    0.6900971493    0.0731225627          0.1152
H244       H    0.0000000618    0.6900978457    0.1768767178          0.1152
C225       C    0.0493308552    0.2155783195    0.1082585654         -0.1462
C226       C    0.0000000008    0.1811549459    0.1250000387          0.0753
C227       C    0.9506691472    0.2155766375    0.1417415454         -0.1462
C228       C    0.9506691479    0.2844217028    0.1417415788         -0.1462
C229       C    0.0000000023    0.3188450764    0.1250001055          0.0753
C230       C    0.0493308559    0.2844233847    0.1082585988         -0.1462
H231       H    0.0858485000    0.1900973270    0.0958655020          0.1152
H232       H    0.9141530629    0.1900976681    0.1541340543          0.1152
H233       H    0.9141515031    0.3099026953    0.1541346422          0.1152
H234       H    0.0858469402    0.3099023542    0.0958660899          0.1152
loop_
_geom_bond_atom_site_label_1
_geom_bond_atom_site_label_2
_geom_bond_distance
_geom_bond_site_symmetry_2
_ccdc_geom_bond_type
O1          Cu9 1.951       .   S
O1          C11 1.250       .   A
O2          Cu9 1.951       .   S
O2          C12 1.250       .   A
O3          Cu9 1.951       .   S
O3          C13 1.250       .   A
O4          Cu9 1.951       .   S
O4          C14 1.250       .   A
O5         Cu10 1.951       .   S
O5          C14 1.250       .   A
O6         Cu10 1.951       .   S
O6          C13 1.251       .   A
O7         Cu10 1.951       .   S
O7          C12 1.250       .   A
O8         Cu10 1.951       .   S
O8          C11 1.250       .   A
Cu9        Cu10 2.630       .   S
C11        C256 1.540       .   S
C12        C246 1.540       .   S
C13        C226 1.540       .   S
C14        C236 1.540       .   S
O15        Cu23 1.951       .   S
O15         C25 1.250       .   A
O16        Cu23 1.951       .   S
O16         C26 1.250       .   A
O17        Cu23 1.951       .   S
O17         C27 1.250       .   A
O18        Cu23 1.951       .   S
O18         C28 1.250       .   A
O19        Cu24 1.951       .   S
O19         C28 1.250       .   A
O20        Cu24 1.951       .   S
O20         C27 1.251       .   A
O21        Cu24 1.951       .   S
O21         C26 1.250       .   A
O22        Cu24 1.951       .   S
O22         C25 1.250       .   A
Cu23       Cu24 2.630       .   S
C25        C269 1.540       .   S
C26        C279 1.540       .   S
C27        C229 1.540       .   S
C28        C239 1.540   1_565   S
O29        Cu37 1.951       .   S
O29         C39 1.250       .   A
O30        Cu37 1.951       .   S
O30         C40 1.250       .   A
O31        Cu37 1.951       .   S
O31         C41 1.250       .   A
O32        Cu37 1.951       .   S
O32         C42 1.250       .   A
O33        Cu38 1.951       .   S
O33         C42 1.250       .   A
O34        Cu38 1.951       .   S
O34         C41 1.251       .   A
O35        Cu38 1.951       .   S
O35         C40 1.250       .   A
O36        Cu38 1.951       .   S
O36         C39 1.250       .   A
Cu37       Cu38 2.630       .   S
C39        C316 1.540       .   S
C40        C306 1.540       .   S
C41        C286 1.540       .   S
C42        C296 1.540       .   S
O43        Cu51 1.951       .   S
O43         C53 1.250       .   A
O44        Cu51 1.951       .   S
O44         C54 1.250       .   A
O45        Cu51 1.951       .   S
O45         C55 1.250       .   A
O46        Cu51 1.951       .   S
O46         C56 1.250       .   A
O47        Cu52 1.951       .   S
O47         C56 1.250       .   A
O48        Cu52 1.951       .   S
O48         C55 1.251       .   A
O49        Cu52 1.951       .   S
O49         C54 1.250       .   A
O50        Cu52 1.951       .   S
O50         C53 1.250       .   A
Cu51       Cu52 2.630       .   S
C53        C326 1.540       .   S
C54        C336 1.540       .   S
C55        C289 1.540   1_545   S
C56        C299 1.540       .   S
O57        Cu65 1.951       .   S
O57         C67 1.250       .   A
O58        Cu65 1.951       .   S
O58         C68 1.250       .   A
O59        Cu65 1.951       .   S
O59         C69 1.250       .   A
O60        Cu65 1.951       .   S
O60         C70 1.250       .   A
O61        Cu66 1.951       .   S
O61         C70 1.250       .   A
O62        Cu66 1.951       .   S
O62         C69 1.251       .   A
O63        Cu66 1.951       .   S
O63         C68 1.250       .   A
O64        Cu66 1.951       .   S
O64         C67 1.250       .   A
Cu65       Cu66 2.630       .   S
C67        C249 1.540   1_566   S
C68        C366 1.540       .   S
C69        C346 1.540       .   S
C70        C356 1.540       .   S
O71        Cu79 1.951       .   S
O71         C81 1.250       .   A
O72        Cu79 1.951       .   S
O72         C82 1.250       .   A
O73        Cu79 1.951       .   S
O73         C83 1.250       .   A
O74        Cu79 1.951       .   S
O74         C84 1.250       .   A
O75        Cu80 1.951       .   S
O75         C84 1.250       .   A
O76        Cu80 1.951       .   S
O76         C83 1.251       .   A
O77        Cu80 1.951       .   S
O77         C82 1.250       .   A
O78        Cu80 1.951       .   S
O78         C81 1.250       .   A
Cu79       Cu80 2.630       .   S
C81        C266 1.540   1_556   S
C82        C376 1.540       .   S
C83        C359 1.540       .   S
C84        C349 1.540   1_545   S
O85        Cu93 1.951       .   S
O85         C95 1.250       .   A
O86        Cu93 1.951       .   S
O86         C96 1.250       .   A
O87        Cu93 1.951       .   S
O87         C97 1.250       .   A
O88        Cu93 1.951       .   S
O88         C98 1.250       .   A
O89        Cu94 1.951       .   S
O89         C98 1.250       .   A
O90        Cu94 1.951       .   S
O90         C97 1.251       .   A
O91        Cu94 1.951       .   S
O91         C96 1.250       .   A
O92        Cu94 1.951       .   S
O92         C95 1.250       .   A
Cu93       Cu94 2.630       .   S
C95        C309 1.540   1_556   S
C96        C406 1.540       .   S
C97        C396 1.540       .   S
C98        C386 1.540       .   S
O99       Cu107 1.951       .   S
O99        C109 1.250       .   A
O100      Cu107 1.951       .   S
O100       C110 1.250       .   A
O101      Cu107 1.951       .   S
O101       C111 1.250       .   A
O102      Cu107 1.951       .   S
O102       C112 1.250       .   A
O103      Cu108 1.951       .   S
O103       C112 1.250       .   A
O104      Cu108 1.951       .   S
O104       C111 1.251       .   A
O105      Cu108 1.951       .   S
O105       C110 1.250       .   A
O106      Cu108 1.951       .   S
O106       C109 1.250       .   A
Cu107     Cu108 2.630       .   S
C109       C416 1.540       .   S
C110       C329 1.540   1_556   S
C111       C399 1.540       .   S
C112       C389 1.540   1_545   S
O113      Cu121 1.951       .   S
O113       C123 1.250       .   A
O114      Cu121 1.951       .   S
O114       C124 1.250       .   A
O115      Cu121 1.951       .   S
O115       C125 1.250       .   A
O116      Cu121 1.951       .   S
O116       C126 1.250       .   A
O117      Cu122 1.951       .   S
O117       C126 1.250       .   A
O118      Cu122 1.951       .   S
O118       C125 1.251       .   A
O119      Cu122 1.951       .   S
O119       C124 1.250       .   A
O120      Cu122 1.951       .   S
O120       C123 1.250       .   A
Cu121     Cu122 2.630       .   S
C123       C259 1.540       .   S
C124       C446 1.540       .   S
C125       C436 1.540       .   S
C126       C426 1.540       .   S
O127      Cu135 1.951       .   S
O127       C137 1.250       .   A
O128      Cu135 1.951       .   S
O128       C138 1.250       .   A
O129      Cu135 1.951       .   S
O129       C139 1.250       .   A
O130      Cu135 1.951       .   S
O130       C140 1.250       .   A
O131      Cu136 1.951       .   S
O131       C140 1.250       .   A
O132      Cu136 1.951       .   S
O132       C139 1.251       .   A
O133      Cu136 1.951       .   S
O133       C138 1.250       .   A
O134      Cu136 1.951       .   S
O134       C137 1.250       .   A
Cu135     Cu136 2.630       .   S
C137       C276 1.540       .   S
C138       C476 1.540       .   S
C139       C466 1.540       .   S
C140       C456 1.540       .   S
O141      Cu149 1.951       .   S
O141       C151 1.250       .   A
O142      Cu149 1.951       .   S
O142       C152 1.250       .   A
O143      Cu149 1.951       .   S
O143       C153 1.250       .   A
O144      Cu149 1.951       .   S
O144       C154 1.250       .   A
O145      Cu150 1.951       .   S
O145       C154 1.250       .   A
O146      Cu150 1.951       .   S
O146       C153 1.251       .   A
O147      Cu150 1.951       .   S
O147       C152 1.250       .   A
O148      Cu150 1.951       .   S
O148       C151 1.250       .   A
Cu149     Cu150 2.630       .   S
C151       C319 1.540       .   S
C152       C486 1.540       .   S
C153       C429 1.540   1_565   S
C154       C439 1.540   1_665   S
O155      Cu163 1.951       .   S
O155       C165 1.250       .   A
O156      Cu163 1.951       .   S
O156       C166 1.250       .   A
O157      Cu163 1.951       .   S
O157       C167 1.250       .   A
O158      Cu163 1.951       .   S
O158       C168 1.250       .   A
O159      Cu164 1.951       .   S
O159       C168 1.250       .   A
O160      Cu164 1.951       .   S
O160       C167 1.251       .   A
O161      Cu164 1.951       .   S
O161       C166 1.250       .   A
O162      Cu164 1.951       .   S
O162       C165 1.250       .   A
Cu163     Cu164 2.630       .   S
C165       C339 1.540       .   S
C166       C496 1.540       .   S
C167       C459 1.540       .   S
C168       C469 1.540   1_655   S
O169      Cu177 1.951       .   S
O169       C179 1.250       .   A
O170      Cu177 1.951       .   S
O170       C180 1.250       .   A
O171      Cu177 1.951       .   S
O171       C181 1.250       .   A
O172      Cu177 1.951       .   S
O172       C182 1.250       .   A
O173      Cu178 1.951       .   S
O173       C182 1.250       .   A
O174      Cu178 1.951       .   S
O174       C181 1.251       .   A
O175      Cu178 1.951       .   S
O175       C180 1.250       .   A
O176      Cu178 1.951       .   S
O176       C179 1.250       .   A
Cu177     Cu178 2.630       .   S
C179       C369 1.540       .   S
C180       C449 1.540   1_565   S
C181       C506 1.540       .   S
C182       C516 1.540       .   S
O183      Cu191 1.951       .   S
O183       C193 1.250       .   A
O184      Cu191 1.951       .   S
O184       C194 1.250       .   A
O185      Cu191 1.951       .   S
O185       C195 1.250       .   A
O186      Cu191 1.951       .   S
O186       C196 1.250       .   A
O187      Cu192 1.951       .   S
O187       C196 1.250       .   A
O188      Cu192 1.951       .   S
O188       C195 1.251       .   A
O189      Cu192 1.951       .   S
O189       C194 1.250       .   A
O190      Cu192 1.951       .   S
O190       C193 1.250       .   A
Cu191     Cu192 2.630       .   S
C193       C479 1.540       .   S
C194       C379 1.540       .   S
C195       C536 1.540       .   S
C196       C526 1.540       .   S
O197      Cu205 1.951       .   S
O197       C207 1.250       .   A
O198      Cu205 1.951       .   S
O198       C208 1.250       .   A
O199      Cu205 1.951       .   S
O199       C209 1.250       .   A
O200      Cu205 1.951       .   S
O200       C210 1.250       .   A
O201      Cu206 1.951       .   S
O201       C210 1.250       .   A
O202      Cu206 1.951       .   S
O202       C209 1.251       .   A
O203      Cu206 1.951       .   S
O203       C208 1.250       .   A
O204      Cu206 1.951       .   S
O204       C207 1.250       .   A
Cu205     Cu206 2.630       .   S
C207       C409 1.540       .   S
C208       C489 1.540       .   S
C209       C509 1.540       .   S
C210       C519 1.540   1_655   S
O211      Cu219 1.951       .   S
O211       C221 1.250       .   A
O212      Cu219 1.951       .   S
O212       C222 1.250       .   A
O213      Cu219 1.951       .   S
O213       C223 1.250       .   A
O214      Cu219 1.951       .   S
O214       C224 1.250       .   A
O215      Cu220 1.951       .   S
O215       C224 1.250       .   A
O216      Cu220 1.951       .   S
O216       C223 1.251       .   A
O217      Cu220 1.951       .   S
O217       C222 1.250       .   A
O218      Cu220 1.951       .   S
O218       C221 1.250       .   A
Cu219     Cu220 2.630       .   S
C221       C419 1.540       .   S
C222       C499 1.540       .   S
C223       C529 1.540       .   S
C224       C539 1.540   1_655   S
C535       C536 1.540       .   A
C535       C540 1.540       .   A
C535       H541 1.140       .   S
C536       C537 1.540       .   A
C537       C538 1.540       .   A
C537       H542 1.140       .   S
C538       C539 1.540       .   A
C538       H543 1.140       .   S
C539       C540 1.540       .   A
C540       H544 1.140       .   S
C525       C526 1.540       .   A
C525       C530 1.540       .   A
C525       H531 1.140       .   S
C526       C527 1.540       .   A
C527       C528 1.540       .   A
C527       H532 1.140       .   S
C528       C529 1.540       .   A
C528       H533 1.140       .   S
C529       C530 1.540       .   A
C530       H534 1.140       .   S
C515       C516 1.540       .   A
C515       C520 1.540       .   A
C515       H521 1.140       .   S
C516       C517 1.540       .   A
C517       C518 1.540       .   A
C517       H522 1.140       .   S
C518       C519 1.540       .   A
C518       H523 1.140       .   S
C519       C520 1.540       .   A
C520       H524 1.140       .   S
C505       C506 1.540       .   A
C505       C510 1.540       .   A
C505       H511 1.140       .   S
C506       C507 1.540       .   A
C507       C508 1.540       .   A
C507       H512 1.140       .   S
C508       C509 1.540       .   A
C508       H513 1.140       .   S
C509       C510 1.540       .   A
C510       H514 1.140       .   S
C495       C496 1.540       .   A
C495       C500 1.540       .   A
C495       H501 1.140       .   S
C496       C497 1.540       .   A
C497       C498 1.540       .   A
C497       H502 1.140       .   S
C498       C499 1.540       .   A
C498       H503 1.140       .   S
C499       C500 1.540       .   A
C500       H504 1.140       .   S
C485       C486 1.540       .   A
C485       C490 1.540       .   A
C485       H491 1.140       .   S
C486       C487 1.540       .   A
C487       C488 1.540       .   A
C487       H492 1.140       .   S
C488       C489 1.540       .   A
C488       H493 1.140       .   S
C489       C490 1.540       .   A
C490       H494 1.140       .   S
C475       C476 1.540       .   A
C475       C480 1.540       .   A
C475       H481 1.140       .   S
C476       C477 1.540       .   A
C477       C478 1.540       .   A
C477       H482 1.140       .   S
C478       C479 1.540       .   A
C478       H483 1.140       .   S
C479       C480 1.540       .   A
C480       H484 1.140       .   S
C465       C466 1.540       .   A
C465       C470 1.540       .   A
C465       H471 1.140       .   S
C466       C467 1.540       .   A
C467       C468 1.540       .   A
C467       H472 1.140       .   S
C468       C469 1.540       .   A
C468       H473 1.140       .   S
C469       C470 1.540       .   A
C470       H474 1.140       .   S
C455       C456 1.540       .   A
C455       C460 1.540       .   A
C455       H461 1.140       .   S
C456       C457 1.540       .   A
C457       C458 1.540       .   A
C457       H462 1.140       .   S
C458       C459 1.540       .   A
C458       H463 1.140       .   S
C459       C460 1.540       .   A
C460       H464 1.140       .   S
C445       C446 1.540       .   A
C445       C450 1.540       .   A
C445       H451 1.140       .   S
C446       C447 1.540       .   A
C447       C448 1.540       .   A
C447       H452 1.140       .   S
C448       C449 1.540       .   A
C448       H453 1.140       .   S
C449       C450 1.540       .   A
C450       H454 1.140       .   S
C435       C436 1.540       .   A
C435       C440 1.540       .   A
C435       H441 1.140       .   S
C436       C437 1.540       .   A
C437       C438 1.540       .   A
C437       H442 1.140       .   S
C438       C439 1.540       .   A
C438       H443 1.140       .   S
C439       C440 1.540       .   A
C440       H444 1.140       .   S
C425       C426 1.540       .   A
C425       C430 1.540       .   A
C425       H431 1.140       .   S
C426       C427 1.540       .   A
C427       C428 1.540       .   A
C427       H432 1.140       .   S
C428       C429 1.540       .   A
C428       H433 1.140       .   S
C429       C430 1.540       .   A
C430       H434 1.140       .   S
C415       C416 1.540       .   A
C415       C420 1.540       .   A
C415       H421 1.140       .   S
C416       C417 1.540       .   A
C417       C418 1.540       .   A
C417       H422 1.140       .   S
C418       C419 1.540       .   A
C418       H423 1.140       .   S
C419       C420 1.540       .   A
C420       H424 1.140       .   S
C405       C406 1.540       .   A
C405       C410 1.540       .   A
C405       H411 1.140       .   S
C406       C407 1.540       .   A
C407       C408 1.540       .   A
C407       H412 1.140       .   S
C408       C409 1.540       .   A
C408       H413 1.140       .   S
C409       C410 1.540       .   A
C410       H414 1.140       .   S
C395       C396 1.540       .   A
C395       C400 1.540       .   A
C395       H401 1.140       .   S
C396       C397 1.540       .   A
C397       C398 1.540       .   A
C397       H402 1.140       .   S
C398       C399 1.540       .   A
C398       H403 1.140       .   S
C399       C400 1.540       .   A
C400       H404 1.140       .   S
C385       C386 1.540       .   A
C385       C390 1.540       .   A
C385       H391 1.140       .   S
C386       C387 1.540       .   A
C387       C388 1.540       .   A
C387       H392 1.140       .   S
C388       C389 1.540       .   A
C388       H393 1.140       .   S
C389       C390 1.540       .   A
C390       H394 1.140       .   S
C375       C376 1.540       .   A
C375       C380 1.540       .   A
C375       H381 1.140       .   S
C376       C377 1.540       .   A
C377       C378 1.540       .   A
C377       H382 1.140       .   S
C378       C379 1.540       .   A
C378       H383 1.140       .   S
C379       C380 1.540       .   A
C380       H384 1.140       .   S
C365       C366 1.540       .   A
C365       C370 1.540       .   A
C365       H371 1.140       .   S
C366       C367 1.540       .   A
C367       C368 1.540       .   A
C367       H372 1.140       .   S
C368       C369 1.540       .   A
C368       H373 1.140       .   S
C369       C370 1.540       .   A
C370       H374 1.140       .   S
C355       C356 1.540       .   A
C355       C360 1.540       .   A
C355       H361 1.140       .   S
C356       C357 1.540       .   A
C357       C358 1.540       .   A
C357       H362 1.140       .   S
C358       C359 1.540       .   A
C358       H363 1.140       .   S
C359       C360 1.540       .   A
C360       H364 1.140       .   S
C345       C346 1.540       .   A
C345       C350 1.540       .   A
C345       H351 1.140       .   S
C346       C347 1.540       .   A
C347       C348 1.540       .   A
C347       H352 1.140       .   S
C348       C349 1.540       .   A
C348       H353 1.140       .   S
C349       C350 1.540       .   A
C350       H354 1.140       .   S
C335       C336 1.540       .   A
C335       C340 1.540       .   A
C335       H341 1.140       .   S
C336       C337 1.540       .   A
C337       C338 1.540       .   A
C337       H342 1.140       .   S
C338       C339 1.540       .   A
C338       H343 1.140       .   S
C339       C340 1.540       .   A
C340       H344 1.140       .   S
C325       C326 1.540       .   A
C325       C330 1.540       .   A
C325       H331 1.140       .   S
C326       C327 1.540       .   A
C327       C328 1.540       .   A
C327       H332 1.140       .   S
C328       C329 1.540       .   A
C328       H333 1.140       .   S
C329       C330 1.540       .   A
C330       H334 1.140       .   S
C315       C316 1.540       .   A
C315       C320 1.540       .   A
C315       H321 1.140       .   S
C316       C317 1.540       .   A
C317       C318 1.540       .   A
C317       H322 1.140       .   S
C318       C319 1.540       .   A
C318       H323 1.140       .   S
C319       C320 1.540       .   A
C320       H324 1.140       .   S
C305       C306 1.540       .   A
C305       C310 1.540       .   A
C305       H311 1.140       .   S
C306       C307 1.540       .   A
C307       C308 1.540       .   A
C307       H312 1.140       .   S
C308       C309 1.540       .   A
C308       H313 1.140       .   S
C309       C310 1.540       .   A
C310       H314 1.140       .   S
C295       C296 1.540       .   A
C295       C300 1.540       .   A
C295       H301 1.140       .   S
C296       C297 1.540       .   A
C297       C298 1.540       .   A
C297       H302 1.140       .   S
C298       C299 1.540       .   A
C298       H303 1.140       .   S
C299       C300 1.540       .   A
C300       H304 1.140       .   S
C285       C286 1.540       .   A
C285       C290 1.540       .   A
C285       H291 1.140       .   S
C286       C287 1.540       .   A
C287       C288 1.540       .   A
C287       H292 1.140       .   S
C288       C289 1.540       .   A
C288       H293 1.140       .   S
C289       C290 1.540       .   A
C290       H294 1.140       .   S
C275       C276 1.540       .   A
C275       C280 1.540       .   A
C275       H281 1.140       .   S
C276       C277 1.540       .   A
C277       C278 1.540       .   A
C277       H282 1.140       .   S
C278       C279 1.540       .   A
C278       H283 1.140       .   S
C279       C280 1.540       .   A
C280       H284 1.140       .   S
C265       C266 1.540       .   A
C265       C270 1.540       .   A
C265       H271 1.140       .   S
C266       C267 1.540       .   A
C267       C268 1.540       .   A
C267       H272 1.140       .   S
C268       C269 1.540       .   A
C268       H273 1.140       .   S
C269       C270 1.540       .   A
C270       H274 1.140       .   S
C255       C256 1.540       .   A
C255       C260 1.540       .   A
C255       H261 1.140       .   S
C256       C257 1.540       .   A
C257       C258 1.540       .   A
C257       H262 1.140       .   S
C258       C259 1.540       .   A
C258       H263 1.140       .   S
C259       C260 1.540       .   A
C260       H264 1.140       .   S
C245       C246 1.540       .   A
C245       C250 1.540       .   A
C245       H251 1.140       .   S
C246       C247 1.540       .   A
C247       C248 1.540       .   A
C247       H252 1.140       .   S
C248       C249 1.540       .   A
C248       H253 1.140       .   S
C249       C250 1.540       .   A
C250       H254 1.140       .   S
C235       C236 1.540       .   A
C235       C240 1.540       .   A
C235       H241 1.140       .   S
C236       C237 1.540       .   A
C237       C238 1.540       .   A
C237       H242 1.140       .   S
C238       C239 1.540       .   A
C238       H243 1.140       .   S
C239       C240 1.540       .   A
C240       H244 1.140       .   S
C225       C226 1.540       .   A
C225       C230 1.540       .   A
C225       H231 1.140       .   S
C226       C227 1.540       .   A
C227       C228 1.540       .   A
C227       H232 1.140       .   S
C228       C229 1.540       .   A
C228       H233 1.140       .   S
C229       C230 1.540       .   A
C230       H234 1.140       .   S
