data_cdl_v1-4c_Cu_1_Ch_1-1B_4H_Ch
_audit_creation_date              2021-04-19
_audit_creation_method            'tobacco_3.0'
_symmetry_space_group_name_H-M    'P1'
_symmetry_Int_Tables_number       1
_symmetry_cell_setting            triclinic
loop_
_symmetry_equiv_pos_as_xyz
  x,y,z
_cell_length_a                    22.3769540437234
_cell_length_b                    22.36998590328146
_cell_length_c                    44.66979185944968
_cell_angle_alpha                 88.20364510977883
_cell_angle_beta                  88.17906023504038
_cell_angle_gamma                 76.68835716271332
loop_
_atom_site_label
_atom_site_type_symbol
_atom_site_fract_x
_atom_site_fract_y
_atom_site_fract_z
_atom_site_charge
O1         O    0.9489619840    0.9249206432    0.1266140838         -1.3557
O2         O    0.9489628956    0.0983884922    0.1265995785         -1.3655
O3         O    0.9454626393    0.0151695585    0.0832262473         -1.2517
O4         O    0.9524624846    0.0081456473    0.1699905759         -1.3358
O5         O    0.0545376051    0.9848365119    0.1667769136         -1.3313
O6         O    0.0475378482    0.9918538862    0.0800157529         -1.2439
O7         O    0.0510380160    0.0750793568    0.1233859162         -1.3689
O8         O    0.0510371044    0.9016115078    0.1234004215         -1.3567
Cu9       Cu    0.9396474462    0.0137864210    0.1268997162          1.0456
Cu10      Cu    0.0603525538    0.9862135790    0.1231002838          1.0433
C11        C    0.0000007115    0.8876885031    0.1250088110          0.3063
C12        C    0.9999992885    0.1123114969    0.1249911890          0.2977
C13        C    0.9954642596    0.0045425904    0.0688300198          0.2191
C14        C    0.0045357404    0.9954574096    0.1811699802          0.2819
O15        O    0.0510324223    0.4014227947    0.1233784522         -1.3557
O16        O    0.0510329663    0.5748878403    0.1234099414         -1.3655
O17        O    0.0546484134    0.4845838157    0.1667710939         -1.2517
O18        O    0.0474167224    0.4917334012    0.0800141396         -1.3358
O19        O    0.9453469118    0.5150363898    0.0832925126         -1.3313
O20        O    0.9525785059    0.5078807078    0.1700462985         -1.2439
O21        O    0.9489631557    0.5981908289    0.1266883143         -1.3689
O22        O    0.9489626117    0.4247257833    0.1266568251         -1.3567
Cu23      Cu    0.0603472044    0.4860334746    0.1230954069          1.0456
Cu24      Cu    0.9396483736    0.5135801490    0.1269713596          1.0433
C25        C    0.9999961366    0.3874976562    0.1250135768          0.3063
C26        C    0.9999994415    0.6121159673    0.1250531896          0.2977
C27        C    0.0046836231    0.4951717765    0.1811985863          0.2191
C28        C    0.9953119549    0.5044418471    0.0688681802          0.2819
O29        O    0.4461445177    0.1148627771    0.1260948648         -1.3557
O30        O    0.4461474982    0.9413942529    0.1261058199         -1.3655
O31        O    0.4497028479    0.0245970824    0.1694791221         -1.2517
O32        O    0.4425888982    0.0316538832    0.0827184024         -1.3358
O33        O    0.5446615837    0.0083480561    0.0794748033         -1.3313
O34        O    0.5517751074    0.0012978697    0.1662323660         -1.2439
O35        O    0.5482201837    0.9180884258    0.1228622209         -1.3689
O36        O    0.5482172032    0.0915569500    0.1228512657         -1.3567
Cu37      Cu    0.4368312984    0.0302505546    0.1263967207          1.0456
Cu38      Cu    0.5575334029    0.0027006483    0.1225603650          1.0433
C39        C    0.4971818102    0.1287869211    0.1244719452          0.3063
C40        C    0.4971828912    0.9041642819    0.1244851405          0.2977
C41        C    0.5017836997    0.0119136052    0.1806464482          0.2191
C42        C    0.4925810016    0.0210375977    0.0683106375          0.2819
O43        O    0.4451497136    0.4414230917    0.1261583273         -1.3557
O44        O    0.4451438502    0.6148977102    0.1260588241         -1.3655
O45        O    0.4416854941    0.5315816233    0.0827268079         -1.2517
O46        O    0.4486083111    0.5247452561    0.1694935015         -1.3358
O47        O    0.5506851573    0.5014343791    0.1663013382         -1.3313
O48        O    0.5437624262    0.5082642160    0.0795378156         -1.2439
O49        O    0.5472206964    0.5915868332    0.1228666608         -1.3689
O50        O    0.5472265598    0.4181122148    0.1229661641         -1.3567
Cu51      Cu    0.4358316310    0.5302924126    0.1263994966          1.0456
Cu52      Cu    0.5565387791    0.5027175124    0.1226254916          1.0433
C53        C    0.4961903035    0.4041890815    0.1245763370          0.3063
C54        C    0.4961801065    0.6288208434    0.1244486511          0.2977
C55        C    0.4916993320    0.5209261391    0.0683409846          0.2191
C56        C    0.5006710781    0.5120837858    0.1806840035          0.2819
O57        O    0.8966563540    0.9523560163    0.8776198439         -1.3557
O58        O    0.8966492821    0.1258319580    0.8775029568         -1.3655
O59        O    0.8932581416    0.0424826227    0.8341775723         -1.2517
O60        O    0.9000477309    0.0357114315    0.9209483858         -1.3358
O61        O    0.0021275169    0.0123975501    0.9177934088         -1.3313
O62        O    0.9953380087    0.0191622132    0.8310257670         -1.2439
O63        O    0.9987290681    0.1025180766    0.8743479797         -1.3689
O64        O    0.9987361400    0.9290421349    0.8744648669         -1.3567
Cu65      Cu    0.8873373993    0.0412262727    0.8778489273          1.0456
Cu66      Cu    0.0080480227    0.0136478202    0.8741188964          1.0433
C67        C    0.9476985928    0.9151203083    0.8760590104          0.3063
C68        C    0.9476868292    0.1397537846    0.8759088132          0.2977
C69        C    0.9432930878    0.0318160290    0.8198097342          0.2191
C70        C    0.9520923343    0.0230580639    0.9321580895          0.2819
O71        O    0.9966289523    0.4297185677    0.8744396932         -1.3557
O72        O    0.9966357617    0.6031773346    0.8745465182         -1.3655
O73        O    0.0002400348    0.5128029659    0.9178702342         -1.2517
O74        O    0.9930244273    0.5200995234    0.8311128199         -1.3358
O75        O    0.8909542429    0.5434028805    0.8343867049         -1.3313
O76        O    0.8981697537    0.5361002321    0.9211409481         -1.2439
O77        O    0.8945655773    0.6264806917    0.8778204032         -1.3689
O78        O    0.8945587679    0.4530219248    0.8777135782         -1.3567
Cu79      Cu    0.0059469014    0.5143260738    0.8741947274          1.0456
Cu80      Cu    0.8852476283    0.5418731856    0.8780653690          1.0433
C81        C    0.9455915558    0.4157945384    0.8760614658          0.3063
C82        C    0.9456029739    0.6404047210    0.8761986306          0.2977
C83        C    0.9502726864    0.5233694468    0.9322955468          0.2191
C84        C    0.9409218432    0.5328298126    0.8199645496          0.2819
O85        O    0.4944164585    0.9460593356    0.8738369992         -1.3557
O86        O    0.4944166742    0.1195246703    0.8738651154         -1.3655
O87        O    0.4979598896    0.0292404037    0.9172302651         -1.2517
O88        O    0.4908729956    0.0363501826    0.8304686892         -1.3358
O89        O    0.3887998485    0.0596564694    0.8337066480         -1.3313
O90        O    0.3958866508    0.0525405926    0.9204650555         -1.2439
O91        O    0.3923435271    0.1428309571    0.8771030742         -1.3689
O92        O    0.3923433114    0.9693656223    0.8770749580         -1.3567
Cu93      Cu    0.5037313803    0.0306698592    0.8735559554          1.0456
Cu94      Cu    0.3830286053    0.0582204334    0.8773841181          1.0433
C95        C    0.4433785520    0.9321358039    0.8754524137          0.3063
C96        C    0.4433814336    0.1567544887    0.8754876598          0.2977
C97        C    0.4479720873    0.0398358812    0.9316382334          0.2191
C98        C    0.4387878983    0.0490544115    0.8193018400          0.2819
O99        O    0.3918766003    0.6426494484    0.8770805785         -1.3557
O100       O    0.3918885424    0.4691720252    0.8772034875         -1.3655
O101       O    0.3953655615    0.5525080896    0.9205231070         -1.2517
O102       O    0.3883993171    0.5593073099    0.8337578026         -1.3358
O103       O    0.4904753460    0.5359981302    0.8305554282         -1.3313
O104       O    0.4974411695    0.5292055151    0.9173175712         -1.2439
O105       O    0.4939645713    0.4458628454    0.8740011130         -1.3689
O106       O    0.4939526293    0.6193402687    0.8738782041         -1.3567
Cu107     Cu    0.3825675563    0.5580330832    0.8774346524          1.0456
Cu108     Cu    0.5032736153    0.5304792106    0.8736470391          1.0433
C109       C    0.4429142423    0.6565732297    0.8754617645          0.3063
C110       C    0.4429269293    0.4319390641    0.8756199270          0.2977
C111       C    0.4474263120    0.5398609053    0.9317117139          0.2191
C112       C    0.4384148596    0.5486513886    0.8193699777          0.2819
O113       O    0.8897072490    0.0382152174    0.3745266958         -1.3557
O114       O    0.0631251649    0.0382090951    0.3744730353         -1.3655
O115       O    0.9798752033    0.0349429816    0.3311106927         -1.2517
O116       O    0.9729632785    0.0414815796    0.4178921977         -1.3358
O117       O    0.9962736024    0.9393658100    0.4209476927         -1.3377
O118       O    0.0031789201    0.9328276171    0.3341693475         -1.2439
O119       O    0.0864354888    0.9360933255    0.3775285303         -1.3689
O120       O    0.9130175730    0.9360994478    0.3775821908         -1.3567
Cu121     Cu    0.9742937550    0.0475307999    0.3742206515          1.0456
Cu122     Cu    0.0018489829    0.9267777430    0.3778345745          1.0433
C123       C    0.8757928147    0.9871568491    0.3760618575          0.3063
C124       C    0.1003499232    0.9871516938    0.3759933686          0.2977
C125       C    0.9925395759    0.9829253994    0.3198462606          0.2191
C126       C    0.9836031620    0.9913831434    0.4322089655          0.2819
O127       O    0.8889602890    0.5375332863    0.3744548396         -1.3557
O128       O    0.0623741648    0.5375309320    0.3744517205         -1.3655
O129       O    0.9792894299    0.5337690005    0.3310795537         -1.2517
O130       O    0.9720510797    0.5412955025    0.4178301665         -1.3358
O131       O    0.9953387761    0.4392020652    0.4211613272         -1.3313
O132       O    0.0025705074    0.4316760042    0.3344138707         -1.2439
O133       O    0.0856618612    0.4354374946    0.3777828812         -1.3689
O134       O    0.9122479854    0.4354398489    0.3777860003         -1.3567
Cu135     Cu    0.9735468411    0.5468487106    0.3741489114          1.0456
Cu136     Cu    0.0010753090    0.4261220703    0.3780888094          1.0433
C137       C    0.8750351384    0.4864855227    0.3761203858          0.3063
C138       C    0.0995870118    0.4864852582    0.3761173350          0.2977
C139       C    0.9919906067    0.4816169611    0.3199574944          0.2191
C140       C    0.9826315435    0.4913538198    0.4322802264          0.2819
O141       O    0.3859900778    0.0550000721    0.3739189943         -1.3557
O142       O    0.5594050231    0.0549966524    0.3739028343         -1.3655
O143       O    0.4762671656    0.0514086447    0.3305316114         -1.2517
O144       O    0.4691339949    0.0585883519    0.4172933773         -1.3358
O145       O    0.4924297166    0.9564867170    0.4205277722         -1.3313
O146       O    0.4995562722    0.9493074382    0.3337691636         -1.2439
O147       O    0.5827007447    0.9528950174    0.3771372292         -1.3689
O148       O    0.4092857995    0.9528984371    0.3771533892         -1.3567
Cu149     Cu    0.4705764319    0.0643157133    0.3736153757          1.0456
Cu150     Cu    0.4981143906    0.9435793763    0.3774408478          1.0433
C151       C    0.3720687815    0.0039483689    0.3755380791          0.3063
C152       C    0.5966220410    0.0039467207    0.3755181444          0.2977
C153       C    0.4889568506    0.9993036263    0.3193595297          0.2191
C154       C    0.4797339719    0.0085914632    0.4316966938          0.2819
O155       O    0.3844793137    0.5571066740    0.3739049828         -1.3557
O156       O    0.5578940206    0.5571035701    0.3738914476         -1.3655
O157       O    0.4746871450    0.5538298693    0.3305092185         -1.2517
O158       O    0.4676922540    0.5603806240    0.4172903728         -1.3358
O159       O    0.4910023032    0.4582651100    0.4203492598         -1.3313
O160       O    0.4979905840    0.4517147609    0.3335712637         -1.2439
O161       O    0.5812040698    0.4549880561    0.3769503346         -1.3689
O162       O    0.4077893628    0.4549911600    0.3769638698         -1.3567
Cu163     Cu    0.4690642405    0.5664237424    0.3736186927          1.0456
Cu164     Cu    0.4966191429    0.4456709878    0.3772366246          1.0433
C165       C    0.3705652156    0.5060479884    0.3754359242          0.3063
C166       C    0.5951181678    0.5060467417    0.3754193932          0.2977
C167       C    0.4873636099    0.5018106229    0.3192465318          0.2191
C168       C    0.4783197735    0.5102841072    0.4316087855          0.2819
O169       O    0.0358984914    0.0886907987    0.6234218631         -1.3557
O170       O    0.8624836255    0.0886908950    0.6234489166         -1.3655
O171       O    0.9456544421    0.0921830827    0.6668177549         -1.2517
O172       O    0.9527216078    0.0851983671    0.5800498643         -1.3358
O173       O    0.9760225189    0.9830924469    0.5832317603         -1.3313
O174       O    0.9689618899    0.9900770746    0.6699964824         -1.2439
O175       O    0.8857845366    0.9865849747    0.6266308126         -1.3689
O176       O    0.0591994025    0.9865848785    0.6266037591         -1.3567
Cu177     Cu    0.9470599569    0.0980086511    0.6231454040          1.0456
Cu178     Cu    0.9746230711    0.9772671223    0.6269072717          1.0433
C179       C    0.0731187068    0.0376365221    0.6250094021          0.3063
C180       C    0.8485643212    0.0376392513    0.6250432736          0.2977
C181       C    0.9562709199    0.0421638335    0.6811986250          0.2191
C182       C    0.9654121081    0.0331119399    0.5688540508          0.2819
O183       O    0.8833119147    0.4920914452    0.6265728390         -1.3557
O184       O    0.0567230206    0.4920950873    0.6265915642         -1.3655
O185       O    0.9664232453    0.4957067101    0.6699607510         -1.2517
O186       O    0.9736182763    0.4884795485    0.5832004923         -1.3358
O187       O    0.9503227744    0.5905800846    0.5799528559         -1.3313
O188       O    0.9431217267    0.5978068161    0.6667099573         -1.2439
O189       O    0.0334275187    0.5941956234    0.6233439278         -1.3689
O190       O    0.8600164128    0.5941919813    0.6233252026         -1.3567
Cu191     Cu    0.9721480129    0.4827760157    0.6268789486          1.0456
Cu192     Cu    0.9445914204    0.6035110529    0.6230378182          1.0433
C193       C    0.8460948699    0.5431425665    0.6249467551          0.3063
C194       C    0.0706445635    0.5431445021    0.6249700118          0.2977
C195       C    0.9537071479    0.5478181741    0.6811259902          0.2191
C196       C    0.9630322854    0.5384688944    0.5687907766          0.2819
O197       O    0.5313634962    0.1088709337    0.6229142828         -1.3557
O198       O    0.3579505364    0.1088691496    0.6229179795         -1.3655
O199       O    0.4410927914    0.1123809724    0.6662979138         -1.2517
O200       O    0.4482151764    0.1053588657    0.5795311872         -1.3358
O201       O    0.4715152321    0.0032537881    0.5827235168         -1.3313
O202       O    0.4643993858    0.0102758055    0.6694870759         -1.2439
O203       O    0.3812505922    0.0067640720    0.6261103091         -1.3689
O204       O    0.5546635520    0.0067658561    0.6261066125         -1.3567
Cu205     Cu    0.4425259926    0.1181877691    0.6226251925          1.0456
Cu206     Cu    0.4700880958    0.9974472365    0.6263993995          1.0433
C207       C    0.5685830025    0.0578173560    0.6245104827          0.3063
C208       C    0.3440310859    0.0578176497    0.6245141093          0.2977
C209       C    0.4517007018    0.0623676561    0.6806838299          0.2191
C210       C    0.4609133865    0.0532673495    0.5683407621          0.2819
O211       O    0.5311358851    0.6052728505    0.6230229698         -1.3557
O212       O    0.3577210797    0.6052728013    0.6230495935         -1.3655
O213       O    0.4409326496    0.6085844799    0.6664241831         -1.2517
O214       O    0.4479182453    0.6019609413    0.5796452193         -1.3358
O215       O    0.4712273695    0.4998471141    0.5827263290         -1.3313
O216       O    0.4642483075    0.5064705781    0.6695021242         -1.2439
O217       O    0.3810302039    0.5031589742    0.6261307032         -1.3689
O218       O    0.5544450093    0.5031590234    0.6261040795         -1.3567
Cu219     Cu    0.4422966317    0.6145913501    0.6227554932          1.0456
Cu220     Cu    0.4698694573    0.4938404746    0.6263981799          1.0433
C221       C    0.5683601988    0.5542146396    0.6245601778          0.3063
C222       C    0.3438058902    0.5542171851    0.6245934953          0.2977
C223       C    0.4515652574    0.5585080382    0.6807562964          0.2191
C224       C    0.4606008316    0.5499237865    0.5683973766          0.2819
C535       C    0.7301141950    0.6084366553    0.6257388329          0.3708
C536       C    0.7766271049    0.5459119441    0.6248500633          0.3708
C537       C    0.7537404442    0.4861538918    0.6238646968          0.3708
C538       C    0.6843408737    0.4889205508    0.6237681000          0.3708
C539       C    0.6378279638    0.5514452620    0.6246568696          0.3708
C540       C    0.6607146244    0.6112033143    0.6256422361          0.3708
H541       H    0.7470562685    0.6526731356    0.6264682600          0.3708
H542       H    0.7881684105    0.4398714316    0.6232068015          0.3708
H543       H    0.6673988002    0.4446840705    0.6230386728          0.3708
H544       H    0.6262866581    0.6574857745    0.6263001314          0.3708
C525       C    0.2248254180    0.6110669026    0.6266018048          0.3708
C526       C    0.2753644929    0.5514428908    0.6246878326          0.3708
C527       C    0.2577643017    0.4890568318    0.6228677813          0.3708
C528       C    0.1896250356    0.4862947846    0.6229617022          0.3708
C529       C    0.1390859608    0.5459187963    0.6248756744          0.3708
C530       C    0.1566861520    0.6083048553    0.6266957257          0.3708
H531       H    0.2378541310    0.6572487904    0.6279491155          0.3708
H532       H    0.2951725882    0.4449213759    0.6214510083          0.3708
H533       H    0.1765963226    0.4401128967    0.6216143915          0.3708
H534       H    0.1192778654    0.6524403113    0.6281124988          0.3708
C515       C    0.7458599747    0.0429008199    0.5950208208          0.3708
C516       C    0.7783704421    0.0426980868    0.6249096981          0.3708
C517       C    0.7410841293    0.0475255705    0.6546657554          0.3708
C518       C    0.6712873490    0.0525557873    0.6545329355          0.3708
C519       C    0.6387768816    0.0527585204    0.6246440583          0.3708
C520       C    0.6760631944    0.0479310367    0.5948880009          0.3708
H521       H    0.7734615309    0.0393272281    0.5729936095          0.3708
H522       H    0.7651470818    0.0473756609    0.6767903378          0.3708
H523       H    0.6436857928    0.0561293791    0.6765601468          0.3708
H524       H    0.6520002419    0.0480809463    0.5727634185          0.3708
C505       C    0.1564966946    0.1062474630    0.6257555675          0.3708
C506       C    0.1410768736    0.0426989428    0.6248851583          0.3708
C507       C    0.1931550754    0.9841785658    0.6238913465          0.3708
C508       C    0.2606530981    0.9892067089    0.6237679439          0.3708
C509       C    0.2760729190    0.0527552290    0.6246383531          0.3708
C510       C    0.2239947173    0.1112756061    0.6256321649          0.3708
H511       H    0.1179452985    0.1495677421    0.6264912464          0.3708
H512       H    0.1817430268    0.9371383250    0.6232470412          0.3708
H513       H    0.2992044942    0.9458864297    0.6230322650          0.3708
H514       H    0.2354067658    0.1583158469    0.6262764702          0.3708
C495       C    0.5305258827    0.5281432962    0.4827361678          0.3708
C496       C    0.4738693563    0.5202402949    0.4659655945          0.3708
C497       C    0.4128037761    0.5222009455    0.4832325078          0.3708
C498       C    0.4083947224    0.5320645975    0.5172699944          0.3708
C499       C    0.4650512488    0.5399675988    0.5340405677          0.3708
C500       C    0.5261168290    0.5380069482    0.5167736544          0.3708
H501       H    0.5757302732    0.5266919055    0.4699541671          0.3708
H502       H    0.3708648840    0.5163512341    0.4708195355          0.3708
H503       H    0.3631903318    0.5335159882    0.5300519951          0.3708
H504       H    0.5680557210    0.5438566596    0.5291866267          0.3708
C485       C    0.5315669467    0.0281919939    0.4827872523          0.3708
C486       C    0.4749973968    0.0198350397    0.4660858948          0.3708
C487       C    0.4137541293    0.0225724522    0.4833173704          0.3708
C488       C    0.4090804117    0.0336668189    0.5172502036          0.3708
C489       C    0.4656499617    0.0420237731    0.5339515611          0.3708
C490       C    0.5268932292    0.0392863606    0.5167200855          0.3708
H491       H    0.5769028721    0.0261655977    0.4700314846          0.3708
H492       H    0.3718796113    0.0163867511    0.4709556303          0.3708
H493       H    0.3637444864    0.0356932151    0.5300059713          0.3708
H494       H    0.5687677472    0.0454720617    0.5290818257          0.3708
C475       C    0.0342077826    0.5117332125    0.4833572542          0.3708
C476       C    0.9776958959    0.5032187285    0.4666574448          0.3708
C477       C    0.9163200277    0.5063968730    0.4838356921          0.3708
C478       C    0.9114560463    0.5180895017    0.5177137489          0.3708
C479       C    0.9679679331    0.5266039858    0.5344135582          0.3708
C480       C    0.0293438012    0.5234258412    0.5172353109          0.3708
H481       H    0.0796418669    0.5093805600    0.4706408892          0.3708
H482       H    0.8744881876    0.5000945828    0.4714750962          0.3708
H483       H    0.8660219621    0.5204421542    0.5304301138          0.3708
H484       H    0.0711756414    0.5297281315    0.5295959068          0.3708
C465       C    0.7598453339    0.5543740228    0.3792847010          0.3708
C466       C    0.8048454983    0.4913905305    0.3759446108          0.3708
C467       C    0.7800768175    0.4332826399    0.3724297992          0.3708
C468       C    0.7103079723    0.4381582416    0.3722550780          0.3708
C469       C    0.6653078079    0.5011417339    0.3755951683          0.3708
C470       C    0.6900764888    0.5592496246    0.3791099798          0.3708
H471       H    0.7781805912    0.5973889549    0.3818865745          0.3708
H472       H    0.8133849953    0.3866606437    0.3699573651          0.3708
H473       H    0.6919727151    0.3951433096    0.3696532045          0.3708
H474       H    0.6567683109    0.6058716207    0.3815824139          0.3708
C455       C    0.1835484019    0.5544430257    0.3712355993          0.3708
C456       C    0.1675300926    0.4913902732    0.3759464830          0.3708
C457       C    0.2190578044    0.4332138708    0.3804875134          0.3708
C458       C    0.2866038255    0.4380902209    0.3803176599          0.3708
C459       C    0.3026221348    0.5011429734    0.3756067761          0.3708
C460       C    0.2510944230    0.5593193758    0.3710657458          0.3708
H461       H    0.1454045114    0.5975086743    0.3678740573          0.3708
H462       H    0.2072027395    0.3865406063    0.3839746365          0.3708
H463       H    0.3247477161    0.3950245723    0.3836792018          0.3708
H464       H    0.2629494879    0.6059926403    0.3675786226          0.3708
C445       C    0.9711143039    0.0671490725    0.4784654939          0.3708
C446       C    0.9790332340    0.0018661862    0.4665367293          0.3708
C447       C    0.9824265651    0.9469646554    0.4886027435          0.3708
C448       C    0.9779009662    0.9573460109    0.5225975224          0.3708
C449       C    0.9699820361    0.0226288972    0.5345262870          0.3708
C450       C    0.9665887050    0.0775304280    0.5124602727          0.3708
H451       H    0.9686023575    0.1077904654    0.4621309119          0.3708
H452       H    0.9882882364    0.8986407575    0.4797738127          0.3708
H453       H    0.9804129126    0.9167046180    0.5389321044          0.3708
H454       H    0.9607270337    0.1258543259    0.5212892035          0.3708
C435       C    0.7815309127    0.9322813202    0.3767416621          0.3708
C436       C    0.8058637929    0.9913625160    0.3759256637          0.3708
C437       C    0.7605403080    0.0546329808    0.3749740026          0.3708
C438       C    0.6908839430    0.0588222496    0.3748383399          0.3708
C439       C    0.6665510628    0.9997410537    0.3756543382          0.3708
C440       C    0.7118745477    0.9364705890    0.3766059993          0.3708
H441       H    0.8150820638    0.8854447424    0.3774461385          0.3708
H442       H    0.7785499851    0.0983666743    0.3743699734          0.3708
H443       H    0.6573327919    0.1056588274    0.3741338635          0.3708
H444       H    0.6938648706    0.8927368955    0.3772100285          0.3708
C425       C    0.2197357474    0.9324240382    0.3786067406          0.3708
C426       C    0.1684651713    0.9913623316    0.3758792353          0.3708
C427       C    0.1849387763    0.0544883247    0.3730382185          0.3708
C428       C    0.2526829573    0.0586760245    0.3729247070          0.3708
C429       C    0.3039535334    0.9997377311    0.3756522123          0.3708
C430       C    0.2874799284    0.9366117379    0.3784932291          0.3708
H431       H    0.2075410009    0.8856944069    0.3807098310          0.3708
H432       H    0.1469889995    0.0981162378    0.3710192389          0.3708
H433       H    0.2648777039    0.1054056558    0.3708216167          0.3708
H434       H    0.3254297052    0.8929838248    0.3805122087          0.3708
C415       C    0.3829565653    0.5567242974    0.7666156072          0.3708
C416       C    0.4417177791    0.5511270338    0.7845550747          0.3708
C417       C    0.5037512723    0.5479824498    0.7680026045          0.3708
C418       C    0.5070235517    0.5504351294    0.7335106669          0.3708
C419       C    0.4482623380    0.5560323929    0.7155711994          0.3708
C420       C    0.3862288448    0.5591769769    0.7321236696          0.3708
H421       H    0.3370356678    0.5590521063    0.7788687345          0.3708
H422       H    0.5472480771    0.5438392757    0.7812808107          0.3708
H423       H    0.5529444493    0.5481073205    0.7212575396          0.3708
H424       H    0.3427320400    0.5633201510    0.7188454634          0.3708
C405       C    0.5040907682    0.0230015161    0.7330236086          0.3708
C406       C    0.4484565694    0.0590229193    0.7155093569          0.3708
C407       C    0.3896101012    0.0917324370    0.7324785833          0.3708
C408       C    0.3863978320    0.0884205515    0.7669620613          0.3708
C409       C    0.4420320308    0.0523991483    0.7844763130          0.3708
C410       C    0.5008784989    0.0196896306    0.7675070866          0.3708
H411       H    0.5476524394    0.9987879770    0.7204619735          0.3708
H412       H    0.3484280027    0.1183963868    0.7195151334          0.3708
H413       H    0.3428361608    0.1126340906    0.7795236964          0.3708
H414       H    0.5420605975    0.9930256808    0.7804705365          0.3708
C395       C    0.4416749877    0.8272477484    0.9053366420          0.3708
C396       C    0.4432623495    0.8631709155    0.8754547539          0.3708
C397       C    0.4447337590    0.8302776840    0.8455752010          0.3708
C398       C    0.4446178067    0.7614612853    0.8455775362          0.3708
C399       C    0.4430304449    0.7255381182    0.8754594243          0.3708
C400       C    0.4415590354    0.7584313497    0.9053389772          0.3708
H401       H    0.4405857625    0.8515972834    0.9274552721          0.3708
H402       H    0.4459087651    0.8568668436    0.8234557880          0.3708
H403       H    0.4457070319    0.7371117503    0.8234589061          0.3708
H404       H    0.4403840292    0.7318421900    0.9274583902          0.3708
C385       C    0.4415768137    0.2583627110    0.9054179209          0.3708
C386       C    0.4432679246    0.2254797182    0.8755206925          0.3708
C387       C    0.4448452924    0.2614637836    0.8456565650          0.3708
C388       C    0.4447315492    0.3303308418    0.8456896659          0.3708
C389       C    0.4430404382    0.3632138347    0.8755868943          0.3708
C390       C    0.4414630705    0.3272297693    0.9054510218          0.3708
H391       H    0.4404091519    0.2317251561    0.9275251322          0.3708
H392       H    0.4460970966    0.2371250480    0.8235257976          0.3708
H393       H    0.4458992110    0.3569683967    0.8235824546          0.3708
H394       H    0.4402112663    0.3515685049    0.9275817891          0.3708
C375       C    0.9954215501    0.4926940528    0.7331045414          0.3708
C376       C    0.9504894635    0.5440460453    0.7160675641          0.3708
C377       C    0.9023824091    0.5916759858    0.7335082925          0.3708
C378       C    0.8992074411    0.5879539339    0.7679859984          0.3708
C379       C    0.9441395277    0.5366019415    0.7850229757          0.3708
C380       C    0.9922465821    0.4889720009    0.7675822472          0.3708
H381       H    0.0310332657    0.4574355254    0.7201938723          0.3708
H382       H    0.8691223158    0.6296880555    0.7208981344          0.3708
H383       H    0.8635957255    0.6232124614    0.7808966675          0.3708
H384       H    0.0255066753    0.4509599313    0.7801924054          0.3708
C365       C    0.9442304829    0.0960706185    0.7682129520          0.3708
C366       C    0.9465526488    0.0344150224    0.7849956479          0.3708
C367       C    0.9521041698    0.9753343352    0.7672868755          0.3708
C368       C    0.9553335248    0.9779092440    0.7327954072          0.3708
C369       C    0.9530113589    0.0395648401    0.7160127112          0.3708
C370       C    0.9474598379    0.0986455273    0.7337214837          0.3708
H371       H    0.9401209154    0.1398056727    0.7813220433          0.3708
H372       H    0.9538232044    0.9296952123    0.7797088069          0.3708
H373       H    0.9594430923    0.9341741898    0.7196863159          0.3708
H374       H    0.9457408032    0.1442846502    0.7212995522          0.3708
C355       C    0.8856652505    0.8266663193    0.8761708376          0.3708
C356       C    0.9471750213    0.8464850963    0.8760938933          0.3708
C357       C    0.0081605542    0.7975812916    0.8760518762          0.3708
C358       C    0.0076363162    0.7288587100    0.8760868034          0.3708
C359       C    0.9461265454    0.7090399331    0.8761637478          0.3708
C360       C    0.8851410125    0.7579437377    0.8762057649          0.3708
H361       H    0.8405201158    0.8628678371    0.8762019412          0.3708
H362       H    0.0536917979    0.8122495322    0.8759949209          0.3708
H363       H    0.0527814509    0.6926571922    0.8760556998          0.3708
H364       H    0.8396097688    0.7432754972    0.8762627201          0.3708
C345       C    0.8856548359    0.2569601186    0.8759930582          0.3708
C346       C    0.9471626246    0.2088148545    0.8759470045          0.3708
C347       C    0.0081469812    0.2296288974    0.8759390858          0.3708
C348       C    0.0076235491    0.2985882044    0.8759772208          0.3708
C349       C    0.9461157603    0.3467334684    0.8760232745          0.3708
C350       C    0.8851314038    0.3259194255    0.8760311932          0.3708
H351       H    0.8405105720    0.2415523206    0.8759989202          0.3708
H352       H    0.0536767578    0.1939926028    0.8759049967          0.3708
H353       H    0.0527678130    0.3139960024    0.8759713588          0.3708
H354       H    0.8396016272    0.3615557202    0.8760652823          0.3708
C335       C    0.4346228033    0.5182336773    0.2320420477          0.3708
C336       C    0.4973298024    0.5095043719    0.2154746639          0.3708
C337       C    0.5567243431    0.4982178990    0.2333978839          0.3708
C338       C    0.5534118847    0.4956607315    0.2678884877          0.3708
C339       C    0.4907048856    0.5043900369    0.2844558714          0.3708
C340       C    0.4313103449    0.5156765098    0.2665326514          0.3708
H341       H    0.3906554161    0.5265885988    0.2187742095          0.3708
H342       H    0.6031417206    0.4917561409    0.2211353326          0.3708
H343       H    0.5973792719    0.4873058100    0.2811563259          0.3708
H344       H    0.3848929674    0.5221382678    0.2787952028          0.3708
C325       C    0.5351903309    0.5213095117    0.0116433431          0.3708
C326       C    0.4805599547    0.5256902483    0.0339641793          0.3708
C327       C    0.4149324458    0.5347742588    0.0223471855          0.3708
C328       C    0.4039353130    0.5394775327    0.9884093554          0.3708
C329       C    0.4585656892    0.5350967961    0.9660885192          0.3708
C330       C    0.5241931982    0.5260127855    0.9777055130          0.3708
H331       H    0.5837717337    0.5145849844    0.0202429359          0.3708
H332       H    0.3744931585    0.5380171520    0.0388686215          0.3708
H333       H    0.3553539103    0.5462020600    0.9798097626          0.3708
H334       H    0.5646324854    0.5227698924    0.9611840770          0.3708
C315       C    0.4424358815    0.0468724857    0.2325699964          0.3708
C316       C    0.4985592175    0.0087436410    0.2155168875          0.3708
C317       C    0.5514936112    0.9674797710    0.2329498800          0.3708
C318       C    0.5483046689    0.9643447458    0.2674359814          0.3708
C319       C    0.4921813328    0.0024735905    0.2844890903          0.3708
C320       C    0.4392469391    0.0437374605    0.2670560979          0.3708
H321       H    0.4032506809    0.0774184674    0.2196650540          0.3708
H322       H    0.5930375803    0.9392556298    0.2203277810          0.3708
H323       H    0.5874898694    0.9337987641    0.2803409239          0.3708
H324       H    0.3977029700    0.0719616017    0.2796781968          0.3708
C305       C    0.5341360546    0.0308849514    0.0117132405          0.3708
C306       C    0.4813513523    0.0257697939    0.0339053354          0.3708
C307       C    0.4174918421    0.0253215819    0.0221665304          0.3708
C308       C    0.4064170343    0.0299885275    0.9882356304          0.3708
C309       C    0.4592017367    0.0351036851    0.9660435355          0.3708
C310       C    0.5230612468    0.0355518970    0.9777823405          0.3708
H311       H    0.5814086790    0.0312167447    0.0204030053          0.3708
H312       H    0.3784187721    0.0215353462    0.0385926687          0.3708
H313       H    0.3591444099    0.0296567342    0.9795458657          0.3708
H314       H    0.5621343169    0.0393381327    0.9613562022          0.3708
C295       C    0.4983180195    0.8024221418    0.0945907378          0.3708
C296       C    0.4969320074    0.8352769102    0.1244760113          0.3708
C297       C    0.4952954867    0.7993473311    0.1543521693          0.3708
C298       C    0.4950449781    0.7305629835    0.1543430538          0.3708
C299       C    0.4964309903    0.6977082151    0.1244577803          0.3708
C300       C    0.4980675110    0.7336377942    0.0945816223          0.3708
H301       H    0.4995294699    0.8290193627    0.0724746208          0.3708
H302       H    0.4942695136    0.8236651769    0.1764740881          0.3708
H303       H    0.4938335277    0.7039657626    0.1764591708          0.3708
H304       H    0.4990934840    0.7093199484    0.0724597035          0.3708
C285       C    0.4355629779    0.2459367735    0.1245328981          0.3708
C286       C    0.4969341048    0.1975898934    0.1244980251          0.3708
C287       C    0.5580571838    0.2181411211    0.1244892682          0.3708
C288       C    0.5578091359    0.2870392290    0.1245153842          0.3708
C289       C    0.4964380089    0.3353861092    0.1245502571          0.3708
C290       C    0.4353149299    0.3148348815    0.1245590141          0.3708
H291       H    0.3903160233    0.2307235270    0.1245393805          0.3708
H292       H    0.6034858082    0.1823555826    0.1244634551          0.3708
H293       H    0.6030560905    0.3022524755    0.1245089018          0.3708
H294       H    0.3898863055    0.3506204199    0.1245848272          0.3708
C275       C    0.0574547041    0.4564278431    0.2335931508          0.3708
C276       C    0.0014914981    0.4917629205    0.2160946081          0.3708
C277       C    0.9423739089    0.5237294462    0.2330794977          0.3708
C278       C    0.9392195257    0.5203608945    0.2675629298          0.3708
C279       C    0.9951827317    0.4850258171    0.2850614725          0.3708
C280       C    0.0543003209    0.4530592914    0.2680765830          0.3708
H281       H    0.1012170753    0.4327643111    0.2210199209          0.3708
H282       H    0.9009482718    0.5498853566    0.2201276761          0.3708
H283       H    0.8954571545    0.5440244265    0.2801361597          0.3708
H284       H    0.0957259579    0.4269033810    0.2810284045          0.3708
C265       C    0.9178903536    0.5251021769    0.0230102586          0.3708
C266       C    0.9839788238    0.5092045569    0.0345027118          0.3708
C267       C    0.0388807909    0.4980080270    0.0120743167          0.3708
C268       C    0.0276942877    0.5027091170    0.9781534684          0.3708
C269       C    0.9616058175    0.5186067369    0.9666610152          0.3708
C270       C    0.9067038504    0.5298032668    0.9890894103          0.3708
H271       H    0.8772486377    0.5333905172    0.0396130965          0.3708
H272       H    0.0878009792    0.4862403109    0.0205802799          0.3708
H273       H    0.0683360036    0.4944207766    0.9615506305          0.3708
H274       H    0.8577836621    0.5415709830    0.9805834471          0.3708
C255       C    0.0158931467    0.0445949015    0.2340851742          0.3708
C256       C    0.0015211009    0.9923081120    0.2160193685          0.3708
C257       C    0.9841656123    0.9369046150    0.2324423146          0.3708
C258       C    0.9811821696    0.9337879075    0.2669310666          0.3708
C259       C    0.9955542154    0.9860746971    0.2849968723          0.3708
C260       C    0.0129097040    0.0414781941    0.2685739262          0.3708
H261       H    0.0287407161    0.0856078798    0.2219279284          0.3708
H262       H    0.9735269259    0.8982003658    0.2190705891          0.3708
H263       H    0.9683346001    0.8927749292    0.2790883124          0.3708
H264       H    0.0235483904    0.0801824433    0.2819456517          0.3708
C245       C    0.0392912525    0.0050395550    0.0122134188          0.3708
C246       C    0.9845544324    0.0091999952    0.0344513951          0.3708
C247       C    0.9190414768    0.0179607674    0.0227320309          0.3708
C248       C    0.9082653414    0.0225610993    0.9887746904          0.3708
C249       C    0.9630021615    0.0184006590    0.9665367141          0.3708
C250       C    0.0285151170    0.0096398869    0.9782560783          0.3708
H251       H    0.0877878560    0.9985543081    0.0208887922          0.3708
H252       H    0.8785234038    0.0210405877    0.0391921311          0.3708
H253       H    0.8597687379    0.0290463462    0.9800993170          0.3708
H254       H    0.0690331900    0.0065600665    0.9617959781          0.3708
C235       C    0.9387549022    0.7984302346    0.1250058750          0.3708
C236       C    0.0000003938    0.8187459036    0.1250199136          0.3708
C237       C    0.0612455680    0.7702179042    0.1250450390          0.3708
C238       C    0.0612452507    0.7013742358    0.1250561257          0.3708
C239       C    0.9999997592    0.6810585668    0.1250420870          0.3708
C240       C    0.9387545849    0.7295865662    0.1250169617          0.3708
H241       H    0.8934175654    0.8343535588    0.1249872757          0.3708
H242       H    0.1065812014    0.7852539544    0.1250554311          0.3708
H243       H    0.1065825875    0.6654509116    0.1250747250          0.3708
H244       H    0.8934189515    0.7145505160    0.1250065695          0.3708
C225       C    0.9387535565    0.2295914710    0.1249654022          0.3708
C226       C    0.9999985011    0.1810616954    0.1249967822          0.3708
C227       C    0.0612426570    0.2013748011    0.1250337629          0.3708
C228       C    0.0612418685    0.2702176822    0.1250393636          0.3708
C229       C    0.9999969240    0.3187474577    0.1250079836          0.3708
C230       C    0.9387527680    0.2984343521    0.1249710029          0.3708
H231       H    0.8934169735    0.2145544967    0.1249380269          0.3708
H232       H    0.1065778855    0.1654538765    0.1250569914          0.3708
H233       H    0.1065784515    0.2852546565    0.1250667389          0.3708
H234       H    0.8934175396    0.3343552766    0.1249477744          0.3708
loop_
_geom_bond_atom_site_label_1
_geom_bond_atom_site_label_2
_geom_bond_distance
_geom_bond_site_symmetry_2
_ccdc_geom_bond_type
O1          Cu9 1.951       .   S
O1          C11 1.250       .   A
O2          Cu9 1.951       .   S
O2          C12 1.250       .   A
O3          Cu9 1.951       .   S
O3          C13 1.250       .   A
O4          Cu9 1.951       .   S
O4          C14 1.250       .   A
O5         Cu10 1.951       .   S
O5          C14 1.250       .   A
O6         Cu10 1.951       .   S
O6          C13 1.251       .   A
O7         Cu10 1.951       .   S
O7          C12 1.250       .   A
O8         Cu10 1.951       .   S
O8          C11 1.250       .   A
Cu9        Cu10 2.630       .   S
C11        C236 1.542       .   S
C12        C226 1.538       .   S
C13        C246 1.559       .   S
C14        C256 1.556       .   S
O15        Cu23 1.951       .   S
O15         C25 1.250       .   A
O16        Cu23 1.951       .   S
O16         C26 1.250       .   A
O17        Cu23 1.951       .   S
O17         C27 1.250       .   A
O18        Cu23 1.951       .   S
O18         C28 1.250       .   A
O19        Cu24 1.951       .   S
O19         C28 1.250       .   A
O20        Cu24 1.951       .   S
O20         C27 1.251       .   A
O21        Cu24 1.951       .   S
O21         C26 1.250       .   A
O22        Cu24 1.951       .   S
O22         C25 1.250       .   A
Cu23       Cu24 2.630       .   S
C25        C229 1.538   1_655   S
C26        C239 1.542   1_665   S
C27        C276 1.558       .   S
C28        C266 1.560       .   S
O29        Cu37 1.951       .   S
O29         C39 1.250       .   A
O30        Cu37 1.951       .   S
O30         C40 1.250       .   A
O31        Cu37 1.951       .   S
O31         C41 1.250       .   A
O32        Cu37 1.951       .   S
O32         C42 1.250       .   A
O33        Cu38 1.951       .   S
O33         C42 1.250       .   A
O34        Cu38 1.951       .   S
O34         C41 1.251       .   A
O35        Cu38 1.951       .   S
O35         C40 1.250       .   A
O36        Cu38 1.951       .   S
O36         C39 1.250       .   A
Cu37       Cu38 2.630       .   S
C39        C286 1.538       .   S
C40        C296 1.542       .   S
C41        C316 1.557       .   S
C42        C306 1.562       .   S
O43        Cu51 1.951       .   S
O43         C53 1.250       .   A
O44        Cu51 1.951       .   S
O44         C54 1.250       .   A
O45        Cu51 1.951       .   S
O45         C55 1.250       .   A
O46        Cu51 1.951       .   S
O46         C56 1.250       .   A
O47        Cu52 1.951       .   S
O47         C56 1.250       .   A
O48        Cu52 1.951       .   S
O48         C55 1.251       .   A
O49        Cu52 1.951       .   S
O49         C54 1.250       .   A
O50        Cu52 1.951       .   S
O50         C53 1.250       .   A
Cu51       Cu52 2.630       .   S
C53        C289 1.538       .   S
C54        C299 1.542   1_565   S
C55        C326 1.560       .   S
C56        C336 1.553       .   S
O57        Cu65 1.951       .   S
O57         C67 1.250       .   A
O58        Cu65 1.951       .   S
O58         C68 1.250       .   A
O59        Cu65 1.951       .   S
O59         C69 1.250       .   A
O60        Cu65 1.951       .   S
O60         C70 1.250       .   A
O61        Cu66 1.951       .   S
O61         C70 1.250       .   A
O62        Cu66 1.951       .   S
O62         C69 1.251       .   A
O63        Cu66 1.951       .   S
O63         C68 1.250       .   A
O64        Cu66 1.951       .   S
O64         C67 1.250       .   A
Cu65       Cu66 2.630       .   S
C67        C356 1.538       .   S
C68        C346 1.542       .   S
C69        C366 1.554       .   S
C70        C249 1.559   1_656   S
O71        Cu79 1.951       .   S
O71         C81 1.250       .   A
O72        Cu79 1.951       .   S
O72         C82 1.250       .   A
O73        Cu79 1.951       .   S
O73         C83 1.250       .   A
O74        Cu79 1.951       .   S
O74         C84 1.250       .   A
O75        Cu80 1.951       .   S
O75         C84 1.250       .   A
O76        Cu80 1.951       .   S
O76         C83 1.251       .   A
O77        Cu80 1.951       .   S
O77         C82 1.250       .   A
O78        Cu80 1.951       .   S
O78         C81 1.250       .   A
Cu79       Cu80 2.630       .   S
C81        C349 1.542       .   S
C82        C359 1.538   1_565   S
C83        C269 1.560   1_556   S
C84        C379 1.561       .   S
O85        Cu93 1.951       .   S
O85         C95 1.250       .   A
O86        Cu93 1.951       .   S
O86         C96 1.250       .   A
O87        Cu93 1.951       .   S
O87         C97 1.250       .   A
O88        Cu93 1.951       .   S
O88         C98 1.250       .   A
O89        Cu94 1.951       .   S
O89         C98 1.250       .   A
O90        Cu94 1.951       .   S
O90         C97 1.251       .   A
O91        Cu94 1.951       .   S
O91         C96 1.250       .   A
O92        Cu94 1.951       .   S
O92         C95 1.250       .   A
Cu93       Cu94 2.630       .   S
C95        C396 1.543       .   S
C96        C386 1.537       .   S
C97        C309 1.562   1_556   S
C98        C409 1.555       .   S
O99       Cu107 1.951       .   S
O99        C109 1.250       .   A
O100      Cu107 1.951       .   S
O100       C110 1.250       .   A
O101      Cu107 1.951       .   S
O101       C111 1.250       .   A
O102      Cu107 1.951       .   S
O102       C112 1.250       .   A
O103      Cu108 1.951       .   S
O103       C112 1.250       .   A
O104      Cu108 1.951       .   S
O104       C111 1.251       .   A
O105      Cu108 1.951       .   S
O105       C110 1.250       .   A
O106      Cu108 1.951       .   S
O106       C109 1.250       .   A
Cu107     Cu108 2.630       .   S
C109       C399 1.543   1_565   S
C110       C389 1.537       .   S
C111       C329 1.560   1_556   S
C112       C416 1.554       .   S
O113      Cu121 1.951       .   S
O113       C123 1.250       .   A
O114      Cu121 1.951       .   S
O114       C124 1.250       .   A
O115      Cu121 1.951       .   S
O115       C125 1.250       .   A
O116      Cu121 1.951       .   S
O116       C126 1.250       .   A
O117      Cu122 1.951       .   S
O117       C126 1.250       .   A
O118      Cu122 1.951       .   S
O118       C125 1.251       .   A
O119      Cu122 1.951       .   S
O119       C124 1.250       .   A
O120      Cu122 1.951       .   S
O120       C123 1.250       .   A
Cu121     Cu122 2.630       .   S
C123       C436 1.546       .   S
C124       C426 1.548       .   S
C125       C259 1.556   1_665   S
C126       C446 1.555       .   S
O127      Cu135 1.951       .   S
O127       C137 1.250       .   A
O128      Cu135 1.951       .   S
O128       C138 1.250       .   A
O129      Cu135 1.951       .   S
O129       C139 1.250       .   A
O130      Cu135 1.951       .   S
O130       C140 1.250       .   A
O131      Cu136 1.951       .   S
O131       C140 1.250       .   A
O132      Cu136 1.951       .   S
O132       C139 1.251       .   A
O133      Cu136 1.951       .   S
O133       C138 1.250       .   A
O134      Cu136 1.951       .   S
O134       C137 1.250       .   A
Cu135     Cu136 2.630       .   S
C137       C466 1.549       .   S
C138       C456 1.549       .   S
C139       C279 1.558       .   S
C140       C476 1.563       .   S
O141      Cu149 1.951       .   S
O141       C151 1.250       .   A
O142      Cu149 1.951       .   S
O142       C152 1.250       .   A
O143      Cu149 1.951       .   S
O143       C153 1.250       .   A
O144      Cu149 1.951       .   S
O144       C154 1.250       .   A
O145      Cu150 1.951       .   S
O145       C154 1.250       .   A
O146      Cu150 1.951       .   S
O146       C153 1.251       .   A
O147      Cu150 1.951       .   S
O147       C152 1.250       .   A
O148      Cu150 1.951       .   S
O148       C151 1.250       .   A
Cu149     Cu150 2.630       .   S
C151       C429 1.548   1_445   S
C152       C439 1.546   1_545   S
C153       C319 1.557       .   S
C154       C486 1.561       .   S
O155      Cu163 1.951       .   S
O155       C165 1.250       .   A
O156      Cu163 1.951       .   S
O156       C166 1.250       .   A
O157      Cu163 1.951       .   S
O157       C167 1.250       .   A
O158      Cu163 1.951       .   S
O158       C168 1.250       .   A
O159      Cu164 1.951       .   S
O159       C168 1.250       .   A
O160      Cu164 1.951       .   S
O160       C167 1.251       .   A
O161      Cu164 1.951       .   S
O161       C166 1.250       .   A
O162      Cu164 1.951       .   S
O162       C165 1.250       .   A
Cu163     Cu164 2.630       .   S
C165       C459 1.549   1_455   S
C166       C469 1.549       .   S
C167       C339 1.553       .   S
C168       C496 1.554       .   S
O169      Cu177 1.951       .   S
O169       C179 1.250       .   A
O170      Cu177 1.951       .   S
O170       C180 1.250       .   A
O171      Cu177 1.951       .   S
O171       C181 1.250       .   A
O172      Cu177 1.951       .   S
O172       C182 1.250       .   A
O173      Cu178 1.951       .   S
O173       C182 1.250       .   A
O174      Cu178 1.951       .   S
O174       C181 1.251       .   A
O175      Cu178 1.951       .   S
O175       C180 1.250       .   A
O176      Cu178 1.951       .   S
O176       C179 1.250       .   A
Cu177     Cu178 2.630       .   S
C179       C506 1.551       .   S
C180       C516 1.549       .   S
C181       C369 1.554       .   S
C182       C449 1.555   1_545   S
O183      Cu191 1.951       .   S
O183       C193 1.250       .   A
O184      Cu191 1.951       .   S
O184       C194 1.250       .   A
O185      Cu191 1.951       .   S
O185       C195 1.250       .   A
O186      Cu191 1.951       .   S
O186       C196 1.250       .   A
O187      Cu192 1.951       .   S
O187       C196 1.250       .   A
O188      Cu192 1.951       .   S
O188       C195 1.251       .   A
O189      Cu192 1.951       .   S
O189       C194 1.250       .   A
O190      Cu192 1.951       .   S
O190       C193 1.250       .   A
Cu191     Cu192 2.630       .   S
C193       C536 1.542       .   S
C194       C529 1.547       .   S
C195       C376 1.561       .   S
C196       C479 1.563       .   S
O197      Cu205 1.951       .   S
O197       C207 1.250       .   A
O198      Cu205 1.951       .   S
O198       C208 1.250       .   A
O199      Cu205 1.951       .   S
O199       C209 1.250       .   A
O200      Cu205 1.951       .   S
O200       C210 1.250       .   A
O201      Cu206 1.951       .   S
O201       C210 1.250       .   A
O202      Cu206 1.951       .   S
O202       C209 1.251       .   A
O203      Cu206 1.951       .   S
O203       C208 1.250       .   A
O204      Cu206 1.951       .   S
O204       C207 1.250       .   A
Cu205     Cu206 2.630       .   S
C207       C519 1.549       .   S
C208       C509 1.551   1_455   S
C209       C406 1.555       .   S
C210       C489 1.561       .   S
O211      Cu219 1.951       .   S
O211       C221 1.250       .   A
O212      Cu219 1.951       .   S
O212       C222 1.250       .   A
O213      Cu219 1.951       .   S
O213       C223 1.250       .   A
O214      Cu219 1.951       .   S
O214       C224 1.250       .   A
O215      Cu220 1.951       .   S
O215       C224 1.250       .   A
O216      Cu220 1.951       .   S
O216       C223 1.251       .   A
O217      Cu220 1.951       .   S
O217       C222 1.250       .   A
O218      Cu220 1.951       .   S
O218       C221 1.250       .   A
Cu219     Cu220 2.630       .   S
C221       C539 1.542       .   S
C222       C526 1.547   1_455   S
C223       C419 1.554       .   S
C224       C499 1.554       .   S
C535       C536 1.540       .   A
C535       C540 1.540       .   A
C535       H541 1.140       .   S
C536       C537 1.540       .   A
C537       C538 1.540       .   A
C537       H542 1.140       .   S
C538       C539 1.540       .   A
C538       H543 1.140       .   S
C539       C540 1.540       .   A
C540       H544 1.140       .   S
C525       C526 1.540       .   A
C525       C530 1.540       .   A
C525       H531 1.140       .   S
C526       C527 1.540       .   A
C527       C528 1.540       .   A
C527       H532 1.140       .   S
C528       C529 1.540       .   A
C528       H533 1.140       .   S
C529       C530 1.540       .   A
C530       H534 1.140       .   S
C515       C516 1.540       .   A
C515       C520 1.540       .   A
C515       H521 1.140       .   S
C516       C517 1.540       .   A
C517       C518 1.540       .   A
C517       H522 1.140       .   S
C518       C519 1.540       .   A
C518       H523 1.140       .   S
C519       C520 1.540       .   A
C520       H524 1.140       .   S
C505       C506 1.540       .   A
C505       C510 1.540       .   A
C505       H511 1.140       .   S
C506       C507 1.540       .   A
C507       C508 1.540       .   A
C507       H512 1.140       .   S
C508       C509 1.540       .   A
C508       H513 1.140       .   S
C509       C510 1.540       .   A
C510       H514 1.140       .   S
C495       C496 1.540       .   A
C495       C500 1.540       .   A
C495       H501 1.140       .   S
C496       C497 1.540       .   A
C497       C498 1.540       .   A
C497       H502 1.140       .   S
C498       C499 1.540       .   A
C498       H503 1.140       .   S
C499       C500 1.540       .   A
C500       H504 1.140       .   S
C485       C486 1.540       .   A
C485       C490 1.540       .   A
C485       H491 1.140       .   S
C486       C487 1.540       .   A
C487       C488 1.540       .   A
C487       H492 1.140       .   S
C488       C489 1.540       .   A
C488       H493 1.140       .   S
C489       C490 1.540       .   A
C490       H494 1.140       .   S
C475       C476 1.540       .   A
C475       C480 1.540       .   A
C475       H481 1.140       .   S
C476       C477 1.540       .   A
C477       C478 1.540       .   A
C477       H482 1.140       .   S
C478       C479 1.540       .   A
C478       H483 1.140       .   S
C479       C480 1.540       .   A
C480       H484 1.140       .   S
C465       C466 1.540       .   A
C465       C470 1.540       .   A
C465       H471 1.140       .   S
C466       C467 1.540       .   A
C467       C468 1.540       .   A
C467       H472 1.140       .   S
C468       C469 1.540       .   A
C468       H473 1.140       .   S
C469       C470 1.540       .   A
C470       H474 1.140       .   S
C455       C456 1.540       .   A
C455       C460 1.540       .   A
C455       H461 1.140       .   S
C456       C457 1.540       .   A
C457       C458 1.540       .   A
C457       H462 1.140       .   S
C458       C459 1.540       .   A
C458       H463 1.140       .   S
C459       C460 1.540       .   A
C460       H464 1.140       .   S
C445       C446 1.540       .   A
C445       C450 1.540       .   A
C445       H451 1.140       .   S
C446       C447 1.540       .   A
C447       C448 1.540       .   A
C447       H452 1.140       .   S
C448       C449 1.540       .   A
C448       H453 1.140       .   S
C449       C450 1.540       .   A
C450       H454 1.140       .   S
C435       C436 1.540       .   A
C435       C440 1.540       .   A
C435       H441 1.140       .   S
C436       C437 1.540       .   A
C437       C438 1.540       .   A
C437       H442 1.140       .   S
C438       C439 1.540       .   A
C438       H443 1.140       .   S
C439       C440 1.540       .   A
C440       H444 1.140       .   S
C425       C426 1.540       .   A
C425       C430 1.540       .   A
C425       H431 1.140       .   S
C426       C427 1.540       .   A
C427       C428 1.540       .   A
C427       H432 1.140       .   S
C428       C429 1.540       .   A
C428       H433 1.140       .   S
C429       C430 1.540       .   A
C430       H434 1.140       .   S
C415       C416 1.540       .   A
C415       C420 1.540       .   A
C415       H421 1.140       .   S
C416       C417 1.540       .   A
C417       C418 1.540       .   A
C417       H422 1.140       .   S
C418       C419 1.540       .   A
C418       H423 1.140       .   S
C419       C420 1.540       .   A
C420       H424 1.140       .   S
C405       C406 1.540       .   A
C405       C410 1.540       .   A
C405       H411 1.140       .   S
C406       C407 1.540       .   A
C407       C408 1.540       .   A
C407       H412 1.140       .   S
C408       C409 1.540       .   A
C408       H413 1.140       .   S
C409       C410 1.540       .   A
C410       H414 1.140       .   S
C395       C396 1.540       .   A
C395       C400 1.540       .   A
C395       H401 1.140       .   S
C396       C397 1.540       .   A
C397       C398 1.540       .   A
C397       H402 1.140       .   S
C398       C399 1.540       .   A
C398       H403 1.140       .   S
C399       C400 1.540       .   A
C400       H404 1.140       .   S
C385       C386 1.540       .   A
C385       C390 1.540       .   A
C385       H391 1.140       .   S
C386       C387 1.540       .   A
C387       C388 1.540       .   A
C387       H392 1.140       .   S
C388       C389 1.540       .   A
C388       H393 1.140       .   S
C389       C390 1.540       .   A
C390       H394 1.140       .   S
C375       C376 1.540       .   A
C375       C380 1.540       .   A
C375       H381 1.140       .   S
C376       C377 1.540       .   A
C377       C378 1.540       .   A
C377       H382 1.140       .   S
C378       C379 1.540       .   A
C378       H383 1.140       .   S
C379       C380 1.540       .   A
C380       H384 1.140       .   S
C365       C366 1.540       .   A
C365       C370 1.540       .   A
C365       H371 1.140       .   S
C366       C367 1.540       .   A
C367       C368 1.540       .   A
C367       H372 1.140       .   S
C368       C369 1.540       .   A
C368       H373 1.140       .   S
C369       C370 1.540       .   A
C370       H374 1.140       .   S
C355       C356 1.540       .   A
C355       C360 1.540       .   A
C355       H361 1.140       .   S
C356       C357 1.540       .   A
C357       C358 1.540       .   A
C357       H362 1.140       .   S
C358       C359 1.540       .   A
C358       H363 1.140       .   S
C359       C360 1.540       .   A
C360       H364 1.140       .   S
C345       C346 1.540       .   A
C345       C350 1.540       .   A
C345       H351 1.140       .   S
C346       C347 1.540       .   A
C347       C348 1.540       .   A
C347       H352 1.140       .   S
C348       C349 1.540       .   A
C348       H353 1.140       .   S
C349       C350 1.540       .   A
C350       H354 1.140       .   S
C335       C336 1.540       .   A
C335       C340 1.540       .   A
C335       H341 1.140       .   S
C336       C337 1.540       .   A
C337       C338 1.540       .   A
C337       H342 1.140       .   S
C338       C339 1.540       .   A
C338       H343 1.140       .   S
C339       C340 1.540       .   A
C340       H344 1.140       .   S
C325       C326 1.540       .   A
C325       C330 1.540       .   A
C325       H331 1.140       .   S
C326       C327 1.540       .   A
C327       C328 1.540       .   A
C327       H332 1.140       .   S
C328       C329 1.540       .   A
C328       H333 1.140       .   S
C329       C330 1.540       .   A
C330       H334 1.140       .   S
C315       C316 1.540       .   A
C315       C320 1.540       .   A
C315       H321 1.140       .   S
C316       C317 1.540       .   A
C317       C318 1.540       .   A
C317       H322 1.140       .   S
C318       C319 1.540       .   A
C318       H323 1.140       .   S
C319       C320 1.540       .   A
C320       H324 1.140       .   S
C305       C306 1.540       .   A
C305       C310 1.540       .   A
C305       H311 1.140       .   S
C306       C307 1.540       .   A
C307       C308 1.540       .   A
C307       H312 1.140       .   S
C308       C309 1.540       .   A
C308       H313 1.140       .   S
C309       C310 1.540       .   A
C310       H314 1.140       .   S
C295       C296 1.540       .   A
C295       C300 1.540       .   A
C295       H301 1.140       .   S
C296       C297 1.540       .   A
C297       C298 1.540       .   A
C297       H302 1.140       .   S
C298       C299 1.540       .   A
C298       H303 1.140       .   S
C299       C300 1.540       .   A
C300       H304 1.140       .   S
C285       C286 1.540       .   A
C285       C290 1.540       .   A
C285       H291 1.140       .   S
C286       C287 1.540       .   A
C287       C288 1.540       .   A
C287       H292 1.140       .   S
C288       C289 1.540       .   A
C288       H293 1.140       .   S
C289       C290 1.540       .   A
C290       H294 1.140       .   S
C275       C276 1.540       .   A
C275       C280 1.540       .   A
C275       H281 1.140       .   S
C276       C277 1.540       .   A
C277       C278 1.540       .   A
C277       H282 1.140       .   S
C278       C279 1.540       .   A
C278       H283 1.140       .   S
C279       C280 1.540       .   A
C280       H284 1.140       .   S
C265       C266 1.540       .   A
C265       C270 1.540       .   A
C265       H271 1.140       .   S
C266       C267 1.540       .   A
C267       C268 1.540       .   A
C267       H272 1.140       .   S
C268       C269 1.540       .   A
C268       H273 1.140       .   S
C269       C270 1.540       .   A
C270       H274 1.140       .   S
C255       C256 1.540       .   A
C255       C260 1.540       .   A
C255       H261 1.140       .   S
C256       C257 1.540       .   A
C257       C258 1.540       .   A
C257       H262 1.140       .   S
C258       C259 1.540       .   A
C258       H263 1.140       .   S
C259       C260 1.540       .   A
C260       H264 1.140       .   S
C245       C246 1.540       .   A
C245       C250 1.540       .   A
C245       H251 1.140       .   S
C246       C247 1.540       .   A
C247       C248 1.540       .   A
C247       H252 1.140       .   S
C248       C249 1.540       .   A
C248       H253 1.140       .   S
C249       C250 1.540       .   A
C250       H254 1.140       .   S
C235       C236 1.540       .   A
C235       C240 1.540       .   A
C235       H241 1.140       .   S
C236       C237 1.540       .   A
C237       C238 1.540       .   A
C237       H242 1.140       .   S
C238       C239 1.540       .   A
C238       H243 1.140       .   S
C239       C240 1.540       .   A
C240       H244 1.140       .   S
C225       C226 1.540       .   A
C225       C230 1.540       .   A
C225       H231 1.140       .   S
C226       C227 1.540       .   A
C227       C228 1.540       .   A
C227       H232 1.140       .   S
C228       C229 1.540       .   A
C228       H233 1.140       .   S
C229       C230 1.540       .   A
C230       H234 1.140       .   S
